REMARK  Name = ../refined-set-2016/3hk1/3hk1_pocket.pdb
REMARK  244 active torsions:
REMARK  status: ('A' for Active; 'I' for Inactive)
REMARK    1  A    between atoms: _1  and  _3
REMARK    2  A    between atoms: _3  and  _4
REMARK    3  A    between atoms: _3  and  _6
REMARK    4  A    between atoms: _6  and  _7
REMARK    5  A    between atoms: _10  and  _12
REMARK    6  A    between atoms: _12  and  _13
REMARK    7  A    between atoms: _12  and  _15
REMARK    8  A    between atoms: _18  and  _20
REMARK    9  A    between atoms: _20  and  _21
REMARK   10  A    between atoms: _20  and  _23
REMARK   11  A    between atoms: _23  and  _24
REMARK   12  A    between atoms: _26  and  _28
REMARK   13  A    between atoms: _28  and  _29
REMARK   14  A    between atoms: _28  and  _31
REMARK   15  A    between atoms: _31  and  _32
REMARK   16  A    between atoms: _34  and  _36
REMARK   17  A    between atoms: _36  and  _37
REMARK   18  A    between atoms: _36  and  _39
REMARK   19  A    between atoms: _39  and  _40
REMARK   20  A    between atoms: _46  and  _48
REMARK   21  A    between atoms: _48  and  _49
REMARK   22  A    between atoms: _48  and  _51
REMARK   23  A    between atoms: _51  and  _52
REMARK   24  A    between atoms: _57  and  _58
REMARK   25  A    between atoms: _60  and  _62
REMARK   26  A    between atoms: _62  and  _63
REMARK   27  A    between atoms: _62  and  _65
REMARK   28  A    between atoms: _65  and  _66
REMARK   29  A    between atoms: _66  and  _67
REMARK   30  A    between atoms: _69  and  _71
REMARK   31  A    between atoms: _71  and  _72
REMARK   32  A    between atoms: _71  and  _74
REMARK   33  A    between atoms: _74  and  _75
REMARK   34  A    between atoms: _75  and  _76
REMARK   35  A    between atoms: _76  and  _77
REMARK   36  A    between atoms: _77  and  _78
REMARK   37  A    between atoms: _82  and  _84
REMARK   38  A    between atoms: _84  and  _85
REMARK   39  A    between atoms: _84  and  _87
REMARK   40  A    between atoms: _87  and  _88
REMARK   41  A    between atoms: _88  and  _89
REMARK   42  A    between atoms: _92  and  _94
REMARK   43  A    between atoms: _94  and  _95
REMARK   44  A    between atoms: _94  and  _97
REMARK   45  A    between atoms: _100  and  _102
REMARK   46  A    between atoms: _102  and  _103
REMARK   47  A    between atoms: _105  and  _107
REMARK   48  A    between atoms: _107  and  _108
REMARK   49  A    between atoms: _107  and  _110
REMARK   50  A    between atoms: _113  and  _115
REMARK   51  A    between atoms: _115  and  _116
REMARK   52  A    between atoms: _118  and  _120
REMARK   53  A    between atoms: _120  and  _121
REMARK   54  A    between atoms: _124  and  _126
REMARK   55  A    between atoms: _126  and  _127
REMARK   56  A    between atoms: _126  and  _129
REMARK   57  A    between atoms: _129  and  _130
REMARK   58  A    between atoms: _133  and  _135
REMARK   59  A    between atoms: _135  and  _136
REMARK   60  A    between atoms: _135  and  _138
REMARK   61  A    between atoms: _138  and  _139
REMARK   62  A    between atoms: _139  and  _140
REMARK   63  A    between atoms: _140  and  _141
REMARK   64  A    between atoms: _150  and  _152
REMARK   65  A    between atoms: _152  and  _153
REMARK   66  A    between atoms: _152  and  _155
REMARK   67  A    between atoms: _155  and  _156
REMARK   68  A    between atoms: _156  and  _157
REMARK   69  A    between atoms: _157  and  _158
REMARK   70  A    between atoms: _158  and  _159
REMARK   71  A    between atoms: _163  and  _165
REMARK   72  A    between atoms: _165  and  _166
REMARK   73  A    between atoms: _165  and  _168
REMARK   74  A    between atoms: _171  and  _173
REMARK   75  A    between atoms: _173  and  _174
REMARK   76  A    between atoms: _177  and  _179
REMARK   77  A    between atoms: _179  and  _180
REMARK   78  A    between atoms: _182  and  _184
REMARK   79  A    between atoms: _184  and  _185
REMARK   80  A    between atoms: _184  and  _187
REMARK   81  A    between atoms: _187  and  _188
REMARK   82  A    between atoms: _188  and  _189
REMARK   83  A    between atoms: _191  and  _193
REMARK   84  A    between atoms: _193  and  _194
REMARK   85  A    between atoms: _197  and  _199
REMARK   86  A    between atoms: _199  and  _200
REMARK   87  A    between atoms: _199  and  _202
REMARK   88  A    between atoms: _202  and  _203
REMARK   89  A    between atoms: _203  and  _204
REMARK   90  A    between atoms: _204  and  _205
REMARK   91  A    between atoms: _205  and  _206
REMARK   92  A    between atoms: _211  and  _212
REMARK   93  A    between atoms: _217  and  _219
REMARK   94  A    between atoms: _219  and  _220
REMARK   95  A    between atoms: _219  and  _222
REMARK   96  A    between atoms: _222  and  _223
REMARK   97  A    between atoms: _228  and  _230
REMARK   98  A    between atoms: _230  and  _231
REMARK   99  A    between atoms: _230  and  _233
REMARK  100  A    between atoms: _233  and  _234
REMARK  101  A    between atoms: _234  and  _235
REMARK  102  A    between atoms: _237  and  _239
REMARK  103  A    between atoms: _239  and  _240
REMARK  104  A    between atoms: _239  and  _242
REMARK  105  A    between atoms: _242  and  _243
REMARK  106  A    between atoms: _246  and  _248
REMARK  107  A    between atoms: _248  and  _249
REMARK  108  A    between atoms: _248  and  _251
REMARK  109  A    between atoms: _251  and  _252
REMARK  110  A    between atoms: _252  and  _253
REMARK  111  A    between atoms: _253  and  _254
REMARK  112  A    between atoms: _263  and  _265
REMARK  113  A    between atoms: _265  and  _266
REMARK  114  A    between atoms: _265  and  _268
REMARK  115  A    between atoms: _268  and  _269
REMARK  116  A    between atoms: _271  and  _273
REMARK  117  A    between atoms: _273  and  _274
REMARK  118  A    between atoms: _273  and  _276
REMARK  119  A    between atoms: _276  and  _277
REMARK  120  A    between atoms: _277  and  _278
REMARK  121  A    between atoms: _281  and  _283
REMARK  122  A    between atoms: _283  and  _284
REMARK  123  A    between atoms: _283  and  _286
REMARK  124  A    between atoms: _286  and  _287
REMARK  125  A    between atoms: _289  and  _291
REMARK  126  A    between atoms: _291  and  _292
REMARK  127  A    between atoms: _291  and  _294
REMARK  128  A    between atoms: _294  and  _295
REMARK  129  A    between atoms: _298  and  _300
REMARK  130  A    between atoms: _300  and  _301
REMARK  131  A    between atoms: _300  and  _303
REMARK  132  A    between atoms: _303  and  _304
REMARK  133  A    between atoms: _310  and  _312
REMARK  134  A    between atoms: _312  and  _313
REMARK  135  A    between atoms: _312  and  _315
REMARK  136  A    between atoms: _315  and  _316
REMARK  137  A    between atoms: _316  and  _317
REMARK  138  A    between atoms: _317  and  _318
REMARK  139  A    between atoms: _318  and  _319
REMARK  140  A    between atoms: _323  and  _325
REMARK  141  A    between atoms: _325  and  _326
REMARK  142  A    between atoms: _325  and  _328
REMARK  143  A    between atoms: _328  and  _329
REMARK  144  A    between atoms: _334  and  _336
REMARK  145  A    between atoms: _336  and  _337
REMARK  146  A    between atoms: _336  and  _339
REMARK  147  A    between atoms: _339  and  _340
REMARK  148  A    between atoms: _343  and  _345
REMARK  149  A    between atoms: _345  and  _346
REMARK  150  A    between atoms: _345  and  _348
REMARK  151  A    between atoms: _348  and  _349
REMARK  152  A    between atoms: _352  and  _354
REMARK  153  A    between atoms: _354  and  _355
REMARK  154  A    between atoms: _358  and  _360
REMARK  155  A    between atoms: _360  and  _361
REMARK  156  A    between atoms: _360  and  _363
REMARK  157  A    between atoms: _363  and  _364
REMARK  158  A    between atoms: _367  and  _369
REMARK  159  A    between atoms: _369  and  _370
REMARK  160  A    between atoms: _369  and  _372
REMARK  161  A    between atoms: _372  and  _373
REMARK  162  A    between atoms: _376  and  _378
REMARK  163  A    between atoms: _378  and  _379
REMARK  164  A    between atoms: _378  and  _381
REMARK  165  A    between atoms: _381  and  _382
REMARK  166  A    between atoms: _382  and  _383
REMARK  167  A    between atoms: _383  and  _384
REMARK  168  A    between atoms: _393  and  _395
REMARK  169  A    between atoms: _395  and  _396
REMARK  170  A    between atoms: _395  and  _398
REMARK  171  A    between atoms: _398  and  _399
REMARK  172  A    between atoms: _399  and  _400
REMARK  173  A    between atoms: _405  and  _407
REMARK  174  A    between atoms: _407  and  _408
REMARK  175  A    between atoms: _407  and  _410
REMARK  176  A    between atoms: _410  and  _411
REMARK  177  A    between atoms: _411  and  _412
REMARK  178  A    between atoms: _417  and  _419
REMARK  179  A    between atoms: _419  and  _420
REMARK  180  A    between atoms: _419  and  _422
REMARK  181  A    between atoms: _422  and  _423
REMARK  182  A    between atoms: _433  and  _435
REMARK  183  A    between atoms: _435  and  _436
REMARK  184  A    between atoms: _435  and  _438
REMARK  185  A    between atoms: _438  and  _439
REMARK  186  A    between atoms: _442  and  _444
REMARK  187  A    between atoms: _444  and  _445
REMARK  188  A    between atoms: _444  and  _447
REMARK  189  A    between atoms: _447  and  _448
REMARK  190  A    between atoms: _451  and  _453
REMARK  191  A    between atoms: _453  and  _454
REMARK  192  A    between atoms: _453  and  _456
REMARK  193  A    between atoms: _456  and  _457
REMARK  194  A    between atoms: _457  and  _458
REMARK  195  A    between atoms: _458  and  _459
REMARK  196  A    between atoms: _459  and  _460
REMARK  197  A    between atoms: _464  and  _466
REMARK  198  A    between atoms: _466  and  _467
REMARK  199  A    between atoms: _466  and  _469
REMARK  200  A    between atoms: _469  and  _470
REMARK  201  A    between atoms: _470  and  _471
REMARK  202  A    between atoms: _471  and  _472
REMARK  203  A    between atoms: _481  and  _483
REMARK  204  A    between atoms: _483  and  _484
REMARK  205  A    between atoms: _483  and  _486
REMARK  206  A    between atoms: _486  and  _487
REMARK  207  A    between atoms: _490  and  _492
REMARK  208  A    between atoms: _492  and  _493
REMARK  209  A    between atoms: _492  and  _495
REMARK  210  A    between atoms: _498  and  _500
REMARK  211  A    between atoms: _500  and  _501
REMARK  212  A    between atoms: _500  and  _503
REMARK  213  A    between atoms: _503  and  _504
REMARK  214  A    between atoms: _504  and  _505
REMARK  215  A    between atoms: _508  and  _510
REMARK  216  A    between atoms: _510  and  _511
REMARK  217  A    between atoms: _510  and  _513
REMARK  218  A    between atoms: _515  and  _517
REMARK  219  A    between atoms: _517  and  _518
REMARK  220  A    between atoms: _517  and  _520
REMARK  221  A    between atoms: _520  and  _521
REMARK  222  A    between atoms: _521  and  _522
REMARK  223  A    between atoms: _524  and  _526
REMARK  224  A    between atoms: _526  and  _527
REMARK  225  A    between atoms: _526  and  _529
REMARK  226  A    between atoms: _529  and  _530
REMARK  227  A    between atoms: _532  and  _534
REMARK  228  A    between atoms: _534  and  _535
REMARK  229  A    between atoms: _534  and  _537
REMARK  230  A    between atoms: _537  and  _538
REMARK  231  A    between atoms: _541  and  _543
REMARK  232  A    between atoms: _543  and  _544
REMARK  233  A    between atoms: _543  and  _546
REMARK  234  A    between atoms: _546  and  _547
REMARK  235  A    between atoms: _547  and  _548
REMARK  236  A    between atoms: _548  and  _549
REMARK  237  A    between atoms: _558  and  _560
REMARK  238  A    between atoms: _560  and  _561
REMARK  239  A    between atoms: _560  and  _563
REMARK  240  A    between atoms: _566  and  _568
REMARK  241  A    between atoms: _568  and  _569
REMARK  242  A    between atoms: _568  and  _571
REMARK  243  A    between atoms: _571  and  _572
REMARK  244  A    between atoms: _577  and  _578
REMARK                            x       y       z     vdW  Elec       q    Type
REMARK                         _______ _______ _______ _____ _____    ______ ____
ROOT
ATOM      1  C   VAL A   2      11.195  28.156   4.251  0.00  0.00    +0.241 C 
ATOM      2  O   VAL A   2      11.780  29.191   4.598  0.00  0.00    -0.273 OA
ATOM      3  N   SER A   3      11.841  27.024   3.986  0.00  0.00    -0.295 N 
ATOM      4  H   SER A   3      11.300  26.156   3.795  0.00  0.00    +0.150 HD
ENDROOT
BRANCH   1   5
ATOM      5  CA  VAL A   2       9.667  28.153   4.117  0.00  0.00    +0.148 C 
BRANCH   5   7
ATOM      6  C   LEU A   1       8.417  27.495   2.154  0.00  0.00    +0.238 C 
ATOM      7  N   VAL A   2       9.110  27.125   3.224  0.00  0.00    -0.297 N 
ATOM      8  H   VAL A   2       9.258  26.116   3.429  0.00  0.00    +0.150 HD
ATOM      9  O   LEU A   1       8.143  28.680   1.906  0.00  0.00    -0.274 OA
BRANCH   6  10
ATOM     10  CA  LEU A   1       7.948  26.378   1.237  0.00  0.00    +0.145 C 
BRANCH  10  11
ATOM     11  N   LEU A   1       6.534  26.515   0.937  0.00  0.00    -0.238 NA
ATOM     12  H   LEU A   1       6.239  26.755  -0.031  0.00  0.00    +0.142 HD
ENDBRANCH  10  11
BRANCH  10  13
ATOM     13  CB  LEU A   1       8.749  26.397  -0.060  0.00  0.00    +0.026 C 
BRANCH  13  14
ATOM     14  CG  LEU A   1      10.256  26.223   0.108  0.00  0.00    +0.002 C 
ATOM     15  CD2 LEU A   1      10.623  24.784   0.480  0.00  0.00    +0.000 C 
ATOM     16  CD1 LEU A   1      10.970  26.657  -1.170  0.00  0.00    +0.000 C 
ENDBRANCH  13  14
ENDBRANCH  10  13
ENDBRANCH   6  10
ENDBRANCH   5   7
BRANCH   5  17
ATOM     17  CB  VAL A   2       8.971  28.182   5.491  0.00  0.00    +0.027 C 
ATOM     18  CG2 VAL A   2       9.157  26.873   6.227  0.00  0.00    +0.002 C 
ATOM     19  CG1 VAL A   2       7.495  28.541   5.304  0.00  0.00    +0.002 C 
ENDBRANCH   5  17
ENDBRANCH   1   5
BRANCH   3  20
ATOM     20  CA  SER A   3      13.311  26.985   3.960  0.00  0.00    +0.178 C 
BRANCH  20  21
ATOM     21  C   SER A   3      13.831  25.912   3.015  0.00  0.00    +0.243 C 
ATOM     22  O   SER A   3      13.152  24.918   2.750  0.00  0.00    -0.273 OA
ATOM     23  N   SER A   4      15.038  26.135   2.505  0.00  0.00    -0.296 N 
ATOM     24  H   SER A   4      15.529  27.018   2.753  0.00  0.00    +0.150 HD
BRANCH  23  25
ATOM     25  CA  SER A   4      15.700  25.197   1.615  0.00  0.00    +0.166 C 
BRANCH  25  26
ATOM     26  CB  SER A   4      17.193  25.200   1.926  0.00  0.00    +0.229 C 
ATOM     27  OG  SER A   4      17.834  26.276   1.965  0.00  0.00    -0.286 OA
ENDBRANCH  25  26
BRANCH  25  28
ATOM     28  C   SER A   4      15.445  25.581   0.155  0.00  0.00    +0.165 C 
BRANCH  28  29
ATOM     29  O   SER A   4      15.994  24.624  -0.727  0.00  0.00    -0.380 OA
ATOM     30  H   SER A   4      16.971  24.565  -0.581  0.00  0.00    +0.211 HD
ENDBRANCH  28  29
ENDBRANCH  25  28
ENDBRANCH  23  25
ENDBRANCH  20  21
BRANCH  20  31
ATOM     31  CB  SER A   3      13.902  26.784   5.361  0.00  0.00    +0.166 C 
BRANCH  31  32
ATOM     32  OG  SER A   3      13.630  25.482   5.862  0.00  0.00    -0.380 OA
ATOM     33  H   SER A   3      14.025  25.388   6.765  0.00  0.00    +0.211 HD
ENDBRANCH  31  32
ENDBRANCH  20  31
ENDBRANCH   3  20
TORSDOF 15
REMARK  Name = ../refined-set-2016/3hk1/3hk1_pocket.pdb
REMARK  244 active torsions:
REMARK  status: ('A' for Active; 'I' for Inactive)
REMARK    1  A    between atoms: _1  and  _3
REMARK    2  A    between atoms: _3  and  _4
REMARK    3  A    between atoms: _3  and  _6
REMARK    4  A    between atoms: _6  and  _7
REMARK    5  A    between atoms: _10  and  _12
REMARK    6  A    between atoms: _12  and  _13
REMARK    7  A    between atoms: _12  and  _15
REMARK    8  A    between atoms: _18  and  _20
REMARK    9  A    between atoms: _20  and  _21
REMARK   10  A    between atoms: _20  and  _23
REMARK   11  A    between atoms: _23  and  _24
REMARK   12  A    between atoms: _26  and  _28
REMARK   13  A    between atoms: _28  and  _29
REMARK   14  A    between atoms: _28  and  _31
REMARK   15  A    between atoms: _31  and  _32
REMARK   16  A    between atoms: _34  and  _36
REMARK   17  A    between atoms: _36  and  _37
REMARK   18  A    between atoms: _36  and  _39
REMARK   19  A    between atoms: _39  and  _40
REMARK   20  A    between atoms: _46  and  _48
REMARK   21  A    between atoms: _48  and  _49
REMARK   22  A    between atoms: _48  and  _51
REMARK   23  A    between atoms: _51  and  _52
REMARK   24  A    between atoms: _57  and  _58
REMARK   25  A    between atoms: _60  and  _62
REMARK   26  A    between atoms: _62  and  _63
REMARK   27  A    between atoms: _62  and  _65
REMARK   28  A    between atoms: _65  and  _66
REMARK   29  A    between atoms: _66  and  _67
REMARK   30  A    between atoms: _69  and  _71
REMARK   31  A    between atoms: _71  and  _72
REMARK   32  A    between atoms: _71  and  _74
REMARK   33  A    between atoms: _74  and  _75
REMARK   34  A    between atoms: _75  and  _76
REMARK   35  A    between atoms: _76  and  _77
REMARK   36  A    between atoms: _77  and  _78
REMARK   37  A    between atoms: _82  and  _84
REMARK   38  A    between atoms: _84  and  _85
REMARK   39  A    between atoms: _84  and  _87
REMARK   40  A    between atoms: _87  and  _88
REMARK   41  A    between atoms: _88  and  _89
REMARK   42  A    between atoms: _92  and  _94
REMARK   43  A    between atoms: _94  and  _95
REMARK   44  A    between atoms: _94  and  _97
REMARK   45  A    between atoms: _100  and  _102
REMARK   46  A    between atoms: _102  and  _103
REMARK   47  A    between atoms: _105  and  _107
REMARK   48  A    between atoms: _107  and  _108
REMARK   49  A    between atoms: _107  and  _110
REMARK   50  A    between atoms: _113  and  _115
REMARK   51  A    between atoms: _115  and  _116
REMARK   52  A    between atoms: _118  and  _120
REMARK   53  A    between atoms: _120  and  _121
REMARK   54  A    between atoms: _124  and  _126
REMARK   55  A    between atoms: _126  and  _127
REMARK   56  A    between atoms: _126  and  _129
REMARK   57  A    between atoms: _129  and  _130
REMARK   58  A    between atoms: _133  and  _135
REMARK   59  A    between atoms: _135  and  _136
REMARK   60  A    between atoms: _135  and  _138
REMARK   61  A    between atoms: _138  and  _139
REMARK   62  A    between atoms: _139  and  _140
REMARK   63  A    between atoms: _140  and  _141
REMARK   64  A    between atoms: _150  and  _152
REMARK   65  A    between atoms: _152  and  _153
REMARK   66  A    between atoms: _152  and  _155
REMARK   67  A    between atoms: _155  and  _156
REMARK   68  A    between atoms: _156  and  _157
REMARK   69  A    between atoms: _157  and  _158
REMARK   70  A    between atoms: _158  and  _159
REMARK   71  A    between atoms: _163  and  _165
REMARK   72  A    between atoms: _165  and  _166
REMARK   73  A    between atoms: _165  and  _168
REMARK   74  A    between atoms: _171  and  _173
REMARK   75  A    between atoms: _173  and  _174
REMARK   76  A    between atoms: _177  and  _179
REMARK   77  A    between atoms: _179  and  _180
REMARK   78  A    between atoms: _182  and  _184
REMARK   79  A    between atoms: _184  and  _185
REMARK   80  A    between atoms: _184  and  _187
REMARK   81  A    between atoms: _187  and  _188
REMARK   82  A    between atoms: _188  and  _189
REMARK   83  A    between atoms: _191  and  _193
REMARK   84  A    between atoms: _193  and  _194
REMARK   85  A    between atoms: _197  and  _199
REMARK   86  A    between atoms: _199  and  _200
REMARK   87  A    between atoms: _199  and  _202
REMARK   88  A    between atoms: _202  and  _203
REMARK   89  A    between atoms: _203  and  _204
REMARK   90  A    between atoms: _204  and  _205
REMARK   91  A    between atoms: _205  and  _206
REMARK   92  A    between atoms: _211  and  _212
REMARK   93  A    between atoms: _217  and  _219
REMARK   94  A    between atoms: _219  and  _220
REMARK   95  A    between atoms: _219  and  _222
REMARK   96  A    between atoms: _222  and  _223
REMARK   97  A    between atoms: _228  and  _230
REMARK   98  A    between atoms: _230  and  _231
REMARK   99  A    between atoms: _230  and  _233
REMARK  100  A    between atoms: _233  and  _234
REMARK  101  A    between atoms: _234  and  _235
REMARK  102  A    between atoms: _237  and  _239
REMARK  103  A    between atoms: _239  and  _240
REMARK  104  A    between atoms: _239  and  _242
REMARK  105  A    between atoms: _242  and  _243
REMARK  106  A    between atoms: _246  and  _248
REMARK  107  A    between atoms: _248  and  _249
REMARK  108  A    between atoms: _248  and  _251
REMARK  109  A    between atoms: _251  and  _252
REMARK  110  A    between atoms: _252  and  _253
REMARK  111  A    between atoms: _253  and  _254
REMARK  112  A    between atoms: _263  and  _265
REMARK  113  A    between atoms: _265  and  _266
REMARK  114  A    between atoms: _265  and  _268
REMARK  115  A    between atoms: _268  and  _269
REMARK  116  A    between atoms: _271  and  _273
REMARK  117  A    between atoms: _273  and  _274
REMARK  118  A    between atoms: _273  and  _276
REMARK  119  A    between atoms: _276  and  _277
REMARK  120  A    between atoms: _277  and  _278
REMARK  121  A    between atoms: _281  and  _283
REMARK  122  A    between atoms: _283  and  _284
REMARK  123  A    between atoms: _283  and  _286
REMARK  124  A    between atoms: _286  and  _287
REMARK  125  A    between atoms: _289  and  _291
REMARK  126  A    between atoms: _291  and  _292
REMARK  127  A    between atoms: _291  and  _294
REMARK  128  A    between atoms: _294  and  _295
REMARK  129  A    between atoms: _298  and  _300
REMARK  130  A    between atoms: _300  and  _301
REMARK  131  A    between atoms: _300  and  _303
REMARK  132  A    between atoms: _303  and  _304
REMARK  133  A    between atoms: _310  and  _312
REMARK  134  A    between atoms: _312  and  _313
REMARK  135  A    between atoms: _312  and  _315
REMARK  136  A    between atoms: _315  and  _316
REMARK  137  A    between atoms: _316  and  _317
REMARK  138  A    between atoms: _317  and  _318
REMARK  139  A    between atoms: _318  and  _319
REMARK  140  A    between atoms: _323  and  _325
REMARK  141  A    between atoms: _325  and  _326
REMARK  142  A    between atoms: _325  and  _328
REMARK  143  A    between atoms: _328  and  _329
REMARK  144  A    between atoms: _334  and  _336
REMARK  145  A    between atoms: _336  and  _337
REMARK  146  A    between atoms: _336  and  _339
REMARK  147  A    between atoms: _339  and  _340
REMARK  148  A    between atoms: _343  and  _345
REMARK  149  A    between atoms: _345  and  _346
REMARK  150  A    between atoms: _345  and  _348
REMARK  151  A    between atoms: _348  and  _349
REMARK  152  A    between atoms: _352  and  _354
REMARK  153  A    between atoms: _354  and  _355
REMARK  154  A    between atoms: _358  and  _360
REMARK  155  A    between atoms: _360  and  _361
REMARK  156  A    between atoms: _360  and  _363
REMARK  157  A    between atoms: _363  and  _364
REMARK  158  A    between atoms: _367  and  _369
REMARK  159  A    between atoms: _369  and  _370
REMARK  160  A    between atoms: _369  and  _372
REMARK  161  A    between atoms: _372  and  _373
REMARK  162  A    between atoms: _376  and  _378
REMARK  163  A    between atoms: _378  and  _379
REMARK  164  A    between atoms: _378  and  _381
REMARK  165  A    between atoms: _381  and  _382
REMARK  166  A    between atoms: _382  and  _383
REMARK  167  A    between atoms: _383  and  _384
REMARK  168  A    between atoms: _393  and  _395
REMARK  169  A    between atoms: _395  and  _396
REMARK  170  A    between atoms: _395  and  _398
REMARK  171  A    between atoms: _398  and  _399
REMARK  172  A    between atoms: _399  and  _400
REMARK  173  A    between atoms: _405  and  _407
REMARK  174  A    between atoms: _407  and  _408
REMARK  175  A    between atoms: _407  and  _410
REMARK  176  A    between atoms: _410  and  _411
REMARK  177  A    between atoms: _411  and  _412
REMARK  178  A    between atoms: _417  and  _419
REMARK  179  A    between atoms: _419  and  _420
REMARK  180  A    between atoms: _419  and  _422
REMARK  181  A    between atoms: _422  and  _423
REMARK  182  A    between atoms: _433  and  _435
REMARK  183  A    between atoms: _435  and  _436
REMARK  184  A    between atoms: _435  and  _438
REMARK  185  A    between atoms: _438  and  _439
REMARK  186  A    between atoms: _442  and  _444
REMARK  187  A    between atoms: _444  and  _445
REMARK  188  A    between atoms: _444  and  _447
REMARK  189  A    between atoms: _447  and  _448
REMARK  190  A    between atoms: _451  and  _453
REMARK  191  A    between atoms: _453  and  _454
REMARK  192  A    between atoms: _453  and  _456
REMARK  193  A    between atoms: _456  and  _457
REMARK  194  A    between atoms: _457  and  _458
REMARK  195  A    between atoms: _458  and  _459
REMARK  196  A    between atoms: _459  and  _460
REMARK  197  A    between atoms: _464  and  _466
REMARK  198  A    between atoms: _466  and  _467
REMARK  199  A    between atoms: _466  and  _469
REMARK  200  A    between atoms: _469  and  _470
REMARK  201  A    between atoms: _470  and  _471
REMARK  202  A    between atoms: _471  and  _472
REMARK  203  A    between atoms: _481  and  _483
REMARK  204  A    between atoms: _483  and  _484
REMARK  205  A    between atoms: _483  and  _486
REMARK  206  A    between atoms: _486  and  _487
REMARK  207  A    between atoms: _490  and  _492
REMARK  208  A    between atoms: _492  and  _493
REMARK  209  A    between atoms: _492  and  _495
REMARK  210  A    between atoms: _498  and  _500
REMARK  211  A    between atoms: _500  and  _501
REMARK  212  A    between atoms: _500  and  _503
REMARK  213  A    between atoms: _503  and  _504
REMARK  214  A    between atoms: _504  and  _505
REMARK  215  A    between atoms: _508  and  _510
REMARK  216  A    between atoms: _510  and  _511
REMARK  217  A    between atoms: _510  and  _513
REMARK  218  A    between atoms: _515  and  _517
REMARK  219  A    between atoms: _517  and  _518
REMARK  220  A    between atoms: _517  and  _520
REMARK  221  A    between atoms: _520  and  _521
REMARK  222  A    between atoms: _521  and  _522
REMARK  223  A    between atoms: _524  and  _526
REMARK  224  A    between atoms: _526  and  _527
REMARK  225  A    between atoms: _526  and  _529
REMARK  226  A    between atoms: _529  and  _530
REMARK  227  A    between atoms: _532  and  _534
REMARK  228  A    between atoms: _534  and  _535
REMARK  229  A    between atoms: _534  and  _537
REMARK  230  A    between atoms: _537  and  _538
REMARK  231  A    between atoms: _541  and  _543
REMARK  232  A    between atoms: _543  and  _544
REMARK  233  A    between atoms: _543  and  _546
REMARK  234  A    between atoms: _546  and  _547
REMARK  235  A    between atoms: _547  and  _548
REMARK  236  A    between atoms: _548  and  _549
REMARK  237  A    between atoms: _558  and  _560
REMARK  238  A    between atoms: _560  and  _561
REMARK  239  A    between atoms: _560  and  _563
REMARK  240  A    between atoms: _566  and  _568
REMARK  241  A    between atoms: _568  and  _569
REMARK  242  A    between atoms: _568  and  _571
REMARK  243  A    between atoms: _571  and  _572
REMARK  244  A    between atoms: _577  and  _578
REMARK                            x       y       z     vdW  Elec       q    Type
REMARK                         _______ _______ _______ _____ _____    ______ ____
ROOT
ATOM      1  CB  PHE A   1      18.038  22.842  -2.779  0.00  0.00    +0.051 C 
ENDROOT
BRANCH   1   2
ATOM      2  CG  PHE A   1      16.983  22.348  -3.736  0.00  0.00    -0.020 A 
ATOM      3  CD2 PHE A   1      16.672  20.985  -3.850  0.00  0.00    -0.004 A 
ATOM      4  CE2 PHE A   1      15.670  20.554  -4.736  0.00  0.00    -0.000 A 
ATOM      5  CZ  PHE A   1      14.958  21.490  -5.486  0.00  0.00    -0.000 A 
ATOM      6  CE1 PHE A   1      15.243  22.844  -5.364  0.00  0.00    -0.000 A 
ATOM      7  CD1 PHE A   1      16.253  23.269  -4.483  0.00  0.00    -0.004 A 
ENDBRANCH   1   2
BRANCH   1   8
ATOM      8  CA  PHE A   1      19.252  21.921  -2.640  0.00  0.00    +0.137 C 
BRANCH   8   9
ATOM      9  N   PHE A   1      20.047  22.372  -1.489  0.00  0.00    -0.239 NA
ATOM     10  H   PHE A   1      19.810  23.277  -1.034  0.00  0.00    +0.142 HD
ENDBRANCH   8   9
BRANCH   8  11
ATOM     11  C   PHE A   1      20.065  21.870  -3.945  0.00  0.00    +0.224 C 
ATOM     12  O   PHE A   1      19.967  20.907  -4.715  0.00  0.00    -0.287 OA
ENDBRANCH   8  11
ENDBRANCH   1   8
TORSDOF 4
REMARK  Name = ../refined-set-2016/3hk1/3hk1_pocket.pdb
REMARK  244 active torsions:
REMARK  status: ('A' for Active; 'I' for Inactive)
REMARK    1  A    between atoms: _1  and  _3
REMARK    2  A    between atoms: _3  and  _4
REMARK    3  A    between atoms: _3  and  _6
REMARK    4  A    between atoms: _6  and  _7
REMARK    5  A    between atoms: _10  and  _12
REMARK    6  A    between atoms: _12  and  _13
REMARK    7  A    between atoms: _12  and  _15
REMARK    8  A    between atoms: _18  and  _20
REMARK    9  A    between atoms: _20  and  _21
REMARK   10  A    between atoms: _20  and  _23
REMARK   11  A    between atoms: _23  and  _24
REMARK   12  A    between atoms: _26  and  _28
REMARK   13  A    between atoms: _28  and  _29
REMARK   14  A    between atoms: _28  and  _31
REMARK   15  A    between atoms: _31  and  _32
REMARK   16  A    between atoms: _34  and  _36
REMARK   17  A    between atoms: _36  and  _37
REMARK   18  A    between atoms: _36  and  _39
REMARK   19  A    between atoms: _39  and  _40
REMARK   20  A    between atoms: _46  and  _48
REMARK   21  A    between atoms: _48  and  _49
REMARK   22  A    between atoms: _48  and  _51
REMARK   23  A    between atoms: _51  and  _52
REMARK   24  A    between atoms: _57  and  _58
REMARK   25  A    between atoms: _60  and  _62
REMARK   26  A    between atoms: _62  and  _63
REMARK   27  A    between atoms: _62  and  _65
REMARK   28  A    between atoms: _65  and  _66
REMARK   29  A    between atoms: _66  and  _67
REMARK   30  A    between atoms: _69  and  _71
REMARK   31  A    between atoms: _71  and  _72
REMARK   32  A    between atoms: _71  and  _74
REMARK   33  A    between atoms: _74  and  _75
REMARK   34  A    between atoms: _75  and  _76
REMARK   35  A    between atoms: _76  and  _77
REMARK   36  A    between atoms: _77  and  _78
REMARK   37  A    between atoms: _82  and  _84
REMARK   38  A    between atoms: _84  and  _85
REMARK   39  A    between atoms: _84  and  _87
REMARK   40  A    between atoms: _87  and  _88
REMARK   41  A    between atoms: _88  and  _89
REMARK   42  A    between atoms: _92  and  _94
REMARK   43  A    between atoms: _94  and  _95
REMARK   44  A    between atoms: _94  and  _97
REMARK   45  A    between atoms: _100  and  _102
REMARK   46  A    between atoms: _102  and  _103
REMARK   47  A    between atoms: _105  and  _107
REMARK   48  A    between atoms: _107  and  _108
REMARK   49  A    between atoms: _107  and  _110
REMARK   50  A    between atoms: _113  and  _115
REMARK   51  A    between atoms: _115  and  _116
REMARK   52  A    between atoms: _118  and  _120
REMARK   53  A    between atoms: _120  and  _121
REMARK   54  A    between atoms: _124  and  _126
REMARK   55  A    between atoms: _126  and  _127
REMARK   56  A    between atoms: _126  and  _129
REMARK   57  A    between atoms: _129  and  _130
REMARK   58  A    between atoms: _133  and  _135
REMARK   59  A    between atoms: _135  and  _136
REMARK   60  A    between atoms: _135  and  _138
REMARK   61  A    between atoms: _138  and  _139
REMARK   62  A    between atoms: _139  and  _140
REMARK   63  A    between atoms: _140  and  _141
REMARK   64  A    between atoms: _150  and  _152
REMARK   65  A    between atoms: _152  and  _153
REMARK   66  A    between atoms: _152  and  _155
REMARK   67  A    between atoms: _155  and  _156
REMARK   68  A    between atoms: _156  and  _157
REMARK   69  A    between atoms: _157  and  _158
REMARK   70  A    between atoms: _158  and  _159
REMARK   71  A    between atoms: _163  and  _165
REMARK   72  A    between atoms: _165  and  _166
REMARK   73  A    between atoms: _165  and  _168
REMARK   74  A    between atoms: _171  and  _173
REMARK   75  A    between atoms: _173  and  _174
REMARK   76  A    between atoms: _177  and  _179
REMARK   77  A    between atoms: _179  and  _180
REMARK   78  A    between atoms: _182  and  _184
REMARK   79  A    between atoms: _184  and  _185
REMARK   80  A    between atoms: _184  and  _187
REMARK   81  A    between atoms: _187  and  _188
REMARK   82  A    between atoms: _188  and  _189
REMARK   83  A    between atoms: _191  and  _193
REMARK   84  A    between atoms: _193  and  _194
REMARK   85  A    between atoms: _197  and  _199
REMARK   86  A    between atoms: _199  and  _200
REMARK   87  A    between atoms: _199  and  _202
REMARK   88  A    between atoms: _202  and  _203
REMARK   89  A    between atoms: _203  and  _204
REMARK   90  A    between atoms: _204  and  _205
REMARK   91  A    between atoms: _205  and  _206
REMARK   92  A    between atoms: _211  and  _212
REMARK   93  A    between atoms: _217  and  _219
REMARK   94  A    between atoms: _219  and  _220
REMARK   95  A    between atoms: _219  and  _222
REMARK   96  A    between atoms: _222  and  _223
REMARK   97  A    between atoms: _228  and  _230
REMARK   98  A    between atoms: _230  and  _231
REMARK   99  A    between atoms: _230  and  _233
REMARK  100  A    between atoms: _233  and  _234
REMARK  101  A    between atoms: _234  and  _235
REMARK  102  A    between atoms: _237  and  _239
REMARK  103  A    between atoms: _239  and  _240
REMARK  104  A    between atoms: _239  and  _242
REMARK  105  A    between atoms: _242  and  _243
REMARK  106  A    between atoms: _246  and  _248
REMARK  107  A    between atoms: _248  and  _249
REMARK  108  A    between atoms: _248  and  _251
REMARK  109  A    between atoms: _251  and  _252
REMARK  110  A    between atoms: _252  and  _253
REMARK  111  A    between atoms: _253  and  _254
REMARK  112  A    between atoms: _263  and  _265
REMARK  113  A    between atoms: _265  and  _266
REMARK  114  A    between atoms: _265  and  _268
REMARK  115  A    between atoms: _268  and  _269
REMARK  116  A    between atoms: _271  and  _273
REMARK  117  A    between atoms: _273  and  _274
REMARK  118  A    between atoms: _273  and  _276
REMARK  119  A    between atoms: _276  and  _277
REMARK  120  A    between atoms: _277  and  _278
REMARK  121  A    between atoms: _281  and  _283
REMARK  122  A    between atoms: _283  and  _284
REMARK  123  A    between atoms: _283  and  _286
REMARK  124  A    between atoms: _286  and  _287
REMARK  125  A    between atoms: _289  and  _291
REMARK  126  A    between atoms: _291  and  _292
REMARK  127  A    between atoms: _291  and  _294
REMARK  128  A    between atoms: _294  and  _295
REMARK  129  A    between atoms: _298  and  _300
REMARK  130  A    between atoms: _300  and  _301
REMARK  131  A    between atoms: _300  and  _303
REMARK  132  A    between atoms: _303  and  _304
REMARK  133  A    between atoms: _310  and  _312
REMARK  134  A    between atoms: _312  and  _313
REMARK  135  A    between atoms: _312  and  _315
REMARK  136  A    between atoms: _315  and  _316
REMARK  137  A    between atoms: _316  and  _317
REMARK  138  A    between atoms: _317  and  _318
REMARK  139  A    between atoms: _318  and  _319
REMARK  140  A    between atoms: _323  and  _325
REMARK  141  A    between atoms: _325  and  _326
REMARK  142  A    between atoms: _325  and  _328
REMARK  143  A    between atoms: _328  and  _329
REMARK  144  A    between atoms: _334  and  _336
REMARK  145  A    between atoms: _336  and  _337
REMARK  146  A    between atoms: _336  and  _339
REMARK  147  A    between atoms: _339  and  _340
REMARK  148  A    between atoms: _343  and  _345
REMARK  149  A    between atoms: _345  and  _346
REMARK  150  A    between atoms: _345  and  _348
REMARK  151  A    between atoms: _348  and  _349
REMARK  152  A    between atoms: _352  and  _354
REMARK  153  A    between atoms: _354  and  _355
REMARK  154  A    between atoms: _358  and  _360
REMARK  155  A    between atoms: _360  and  _361
REMARK  156  A    between atoms: _360  and  _363
REMARK  157  A    between atoms: _363  and  _364
REMARK  158  A    between atoms: _367  and  _369
REMARK  159  A    between atoms: _369  and  _370
REMARK  160  A    between atoms: _369  and  _372
REMARK  161  A    between atoms: _372  and  _373
REMARK  162  A    between atoms: _376  and  _378
REMARK  163  A    between atoms: _378  and  _379
REMARK  164  A    between atoms: _378  and  _381
REMARK  165  A    between atoms: _381  and  _382
REMARK  166  A    between atoms: _382  and  _383
REMARK  167  A    between atoms: _383  and  _384
REMARK  168  A    between atoms: _393  and  _395
REMARK  169  A    between atoms: _395  and  _396
REMARK  170  A    between atoms: _395  and  _398
REMARK  171  A    between atoms: _398  and  _399
REMARK  172  A    between atoms: _399  and  _400
REMARK  173  A    between atoms: _405  and  _407
REMARK  174  A    between atoms: _407  and  _408
REMARK  175  A    between atoms: _407  and  _410
REMARK  176  A    between atoms: _410  and  _411
REMARK  177  A    between atoms: _411  and  _412
REMARK  178  A    between atoms: _417  and  _419
REMARK  179  A    between atoms: _419  and  _420
REMARK  180  A    between atoms: _419  and  _422
REMARK  181  A    between atoms: _422  and  _423
REMARK  182  A    between atoms: _433  and  _435
REMARK  183  A    between atoms: _435  and  _436
REMARK  184  A    between atoms: _435  and  _438
REMARK  185  A    between atoms: _438  and  _439
REMARK  186  A    between atoms: _442  and  _444
REMARK  187  A    between atoms: _444  and  _445
REMARK  188  A    between atoms: _444  and  _447
REMARK  189  A    between atoms: _447  and  _448
REMARK  190  A    between atoms: _451  and  _453
REMARK  191  A    between atoms: _453  and  _454
REMARK  192  A    between atoms: _453  and  _456
REMARK  193  A    between atoms: _456  and  _457
REMARK  194  A    between atoms: _457  and  _458
REMARK  195  A    between atoms: _458  and  _459
REMARK  196  A    between atoms: _459  and  _460
REMARK  197  A    between atoms: _464  and  _466
REMARK  198  A    between atoms: _466  and  _467
REMARK  199  A    between atoms: _466  and  _469
REMARK  200  A    between atoms: _469  and  _470
REMARK  201  A    between atoms: _470  and  _471
REMARK  202  A    between atoms: _471  and  _472
REMARK  203  A    between atoms: _481  and  _483
REMARK  204  A    between atoms: _483  and  _484
REMARK  205  A    between atoms: _483  and  _486
REMARK  206  A    between atoms: _486  and  _487
REMARK  207  A    between atoms: _490  and  _492
REMARK  208  A    between atoms: _492  and  _493
REMARK  209  A    between atoms: _492  and  _495
REMARK  210  A    between atoms: _498  and  _500
REMARK  211  A    between atoms: _500  and  _501
REMARK  212  A    between atoms: _500  and  _503
REMARK  213  A    between atoms: _503  and  _504
REMARK  214  A    between atoms: _504  and  _505
REMARK  215  A    between atoms: _508  and  _510
REMARK  216  A    between atoms: _510  and  _511
REMARK  217  A    between atoms: _510  and  _513
REMARK  218  A    between atoms: _515  and  _517
REMARK  219  A    between atoms: _517  and  _518
REMARK  220  A    between atoms: _517  and  _520
REMARK  221  A    between atoms: _520  and  _521
REMARK  222  A    between atoms: _521  and  _522
REMARK  223  A    between atoms: _524  and  _526
REMARK  224  A    between atoms: _526  and  _527
REMARK  225  A    between atoms: _526  and  _529
REMARK  226  A    between atoms: _529  and  _530
REMARK  227  A    between atoms: _532  and  _534
REMARK  228  A    between atoms: _534  and  _535
REMARK  229  A    between atoms: _534  and  _537
REMARK  230  A    between atoms: _537  and  _538
REMARK  231  A    between atoms: _541  and  _543
REMARK  232  A    between atoms: _543  and  _544
REMARK  233  A    between atoms: _543  and  _546
REMARK  234  A    between atoms: _546  and  _547
REMARK  235  A    between atoms: _547  and  _548
REMARK  236  A    between atoms: _548  and  _549
REMARK  237  A    between atoms: _558  and  _560
REMARK  238  A    between atoms: _560  and  _561
REMARK  239  A    between atoms: _560  and  _563
REMARK  240  A    between atoms: _566  and  _568
REMARK  241  A    between atoms: _568  and  _569
REMARK  242  A    between atoms: _568  and  _571
REMARK  243  A    between atoms: _571  and  _572
REMARK  244  A    between atoms: _577  and  _578
REMARK                            x       y       z     vdW  Elec       q    Type
REMARK                         _______ _______ _______ _____ _____    ______ ____
ROOT
ATOM      1  C   LYS A   3      24.277  16.938  -8.921  0.00  0.00    +0.241 C 
ATOM      2  N   GLU A   4      24.095  16.348  -7.738  0.00  0.00    -0.297 N 
ATOM      3  H   GLU A   4      23.764  16.919  -6.934  0.00  0.00    +0.150 HD
ATOM      4  O   LYS A   3      24.669  16.330  -9.925  0.00  0.00    -0.273 OA
ENDROOT
BRANCH   1   5
ATOM      5  CA  LYS A   3      23.970  18.437  -8.985  0.00  0.00    +0.149 C 
BRANCH   5   7
ATOM      6  C   MET A   2      21.568  18.222  -8.595  0.00  0.00    +0.241 C 
ATOM      7  N   LYS A   3      22.733  18.765  -8.244  0.00  0.00    -0.297 N 
ATOM      8  H   LYS A   3      22.773  19.425  -7.442  0.00  0.00    +0.150 HD
ATOM      9  O   MET A   2      21.443  17.454  -9.552  0.00  0.00    -0.273 OA
BRANCH   6  10
ATOM     10  CA  MET A   2      20.361  18.548  -7.707  0.00  0.00    +0.149 C 
BRANCH  10  13
ATOM     11  C   TYR A   1      21.216  17.496  -5.691  0.00  0.00    +0.239 C 
ATOM     12  O   TYR A   1      21.392  16.427  -6.283  0.00  0.00    -0.274 OA
ATOM     13  N   MET A   2      20.731  18.573  -6.293  0.00  0.00    -0.297 N 
ATOM     14  H   MET A   2      20.612  19.452  -5.749  0.00  0.00    +0.150 HD
BRANCH  11  15
ATOM     15  CA  TYR A   1      21.538  17.643  -4.190  0.00  0.00    +0.149 C 
BRANCH  15  16
ATOM     16  N   TYR A   1      22.352  18.828  -3.961  0.00  0.00    -0.238 NA
ATOM     17  H   TYR A   1      22.019  19.575  -3.318  0.00  0.00    +0.142 HD
ENDBRANCH  15  16
BRANCH  15  18
ATOM     18  CB  TYR A   1      20.251  17.654  -3.340  0.00  0.00    +0.053 C 
BRANCH  18  19
ATOM     19  CG  TYR A   1      19.289  16.566  -3.765  0.00  0.00    -0.020 A 
ATOM     20  CD2 TYR A   1      19.504  15.240  -3.407  0.00  0.00    -0.001 A 
ATOM     21  CE2 TYR A   1      18.614  14.229  -3.823  0.00  0.00    +0.036 A 
ATOM     22  CZ  TYR A   1      17.524  14.564  -4.612  0.00  0.00    +0.134 A 
ATOM     23  CE1 TYR A   1      17.296  15.897  -4.975  0.00  0.00    +0.036 A 
ATOM     24  CD1 TYR A   1      18.172  16.873  -4.547  0.00  0.00    -0.001 A 
BRANCH  22  25
ATOM     25  OH  TYR A   1      16.645  13.594  -5.034  0.00  0.00    -0.506 OA
ATOM     26  HH  TYR A   1      16.942  12.712  -4.697  0.00  0.00    +0.292 HD
ENDBRANCH  22  25
ENDBRANCH  18  19
ENDBRANCH  15  18
ENDBRANCH  11  15
ENDBRANCH  10  13
BRANCH  10  27
ATOM     27  CB  MET A   2      19.710  19.856  -8.111  0.00  0.00    +0.041 C 
BRANCH  27  28
ATOM     28  CG  MET A   2      18.237  19.968  -7.657  0.00  0.00    +0.060 C 
BRANCH  28  29
ATOM     29  SD  MET A   2      17.373  21.348  -8.375  0.00  0.00    -0.139 S 
ATOM     30  CE  MET A   2      18.202  22.696  -7.515  0.00  0.00    +0.069 C 
ENDBRANCH  28  29
ENDBRANCH  27  28
ENDBRANCH  10  27
ENDBRANCH   6  10
ENDBRANCH   5   7
BRANCH   5  31
ATOM     31  CB  LYS A   3      25.162  19.233  -8.451  0.00  0.00    +0.029 C 
BRANCH  31  32
ATOM     32  CG  LYS A   3      25.142  20.688  -8.818  0.00  0.00    +0.000 C 
BRANCH  32  33
ATOM     33  CD  LYS A   3      26.378  21.352  -8.232  0.00  0.00    -0.024 C 
BRANCH  33  34
ATOM     34  CE  LYS A   3      26.585  22.740  -8.760  0.00  0.00    -0.086 C 
BRANCH  34  35
ATOM     35  NZ  LYS A   3      28.036  23.119  -8.573  0.00  0.00    +0.380 N 
ATOM     36  HZ1 LYS A   3      28.274  23.087  -7.561  0.00  0.00    -0.089 HD
ATOM     37  HZ2 LYS A   3      28.191  24.081  -8.936  0.00  0.00    -0.089 HD
ATOM     38  HZ3 LYS A   3      28.638  22.449  -9.094  0.00  0.00    -0.089 HD
ENDBRANCH  34  35
ENDBRANCH  33  34
ENDBRANCH  32  33
ENDBRANCH  31  32
ENDBRANCH   5  31
ENDBRANCH   1   5
BRANCH   2  39
ATOM     39  CA  GLU A   4      24.348  14.921  -7.540  0.00  0.00    +0.149 C 
BRANCH  39  40
ATOM     40  C   GLU A   4      23.426  14.089  -8.431  0.00  0.00    +0.241 C 
ATOM     41  N   VAL A   5      22.163  14.505  -8.520  0.00  0.00    -0.297 N 
ATOM     42  H   VAL A   5      21.864  15.349  -7.991  0.00  0.00    +0.150 HD
ATOM     43  O   GLU A   4      23.861  13.114  -9.056  0.00  0.00    -0.273 OA
BRANCH  41  44
ATOM     44  CA  VAL A   5      21.188  13.793  -9.350  0.00  0.00    +0.149 C 
BRANCH  44  45
ATOM     45  C   VAL A   5      21.492  13.974 -10.850  0.00  0.00    +0.241 C 
ATOM     46  N   GLY A   6      22.056  15.129 -11.196  0.00  0.00    -0.295 N 
ATOM     47  H   GLY A   6      22.195  15.859 -10.468  0.00  0.00    +0.150 HD
ATOM     48  O   VAL A   5      21.225  13.073 -11.658  0.00  0.00    -0.273 OA
BRANCH  46  49
ATOM     49  CA  GLY A   6      22.491  15.409 -12.578  0.00  0.00    +0.176 C 
BRANCH  49  50
ATOM     50  C   GLY A   6      21.681  16.477 -13.290  0.00  0.00    +0.243 C 
ATOM     51  N   VAL A   7      20.986  17.303 -12.509  0.00  0.00    -0.297 N 
ATOM     52  H   VAL A   7      21.070  17.208 -11.477  0.00  0.00    +0.150 HD
ATOM     53  O   GLY A   6      21.671  16.554 -14.540  0.00  0.00    -0.273 OA
BRANCH  51  54
ATOM     54  CA  VAL A   7      20.117  18.330 -13.050  0.00  0.00    +0.149 C 
BRANCH  54  55
ATOM     55  C   VAL A   7      20.946  19.435 -13.722  0.00  0.00    +0.241 C 
ATOM     56  O   VAL A   7      21.949  19.891 -13.164  0.00  0.00    -0.273 OA
ATOM     57  N   GLY A   8      20.496  19.864 -14.903  0.00  0.00    -0.296 N 
ATOM     58  H   GLY A   8      19.615  19.461 -15.281  0.00  0.00    +0.150 HD
BRANCH  57  59
ATOM     59  CA  GLY A   8      21.206  20.890 -15.691  0.00  0.00    +0.163 C 
BRANCH  59  60
ATOM     60  C   GLY A   8      21.192  22.247 -15.013  0.00  0.00    +0.229 C 
ATOM     61  O   GLY A   8      20.257  22.576 -14.278  0.00  0.00    -0.286 OA
ENDBRANCH  59  60
ENDBRANCH  57  59
ENDBRANCH  54  55
BRANCH  54  62
ATOM     62  CB  VAL A   7      19.216  18.952 -11.945  0.00  0.00    +0.027 C 
ATOM     63  CG2 VAL A   7      18.434  17.863 -11.231  0.00  0.00    +0.002 C 
ATOM     64  CG1 VAL A   7      18.266  19.965 -12.539  0.00  0.00    +0.002 C 
ENDBRANCH  54  62
ENDBRANCH  51  54
ENDBRANCH  49  50
ENDBRANCH  46  49
ENDBRANCH  44  45
BRANCH  44  65
ATOM     65  CB  VAL A   5      19.739  14.215  -9.033  0.00  0.00    +0.027 C 
ATOM     66  CG2 VAL A   5      19.381  13.817  -7.593  0.00  0.00    +0.002 C 
ATOM     67  CG1 VAL A   5      18.750  13.573 -10.030  0.00  0.00    +0.002 C 
ENDBRANCH  44  65
ENDBRANCH  41  44
ENDBRANCH  39  40
BRANCH  39  68
ATOM     68  CB  GLU A   4      24.184  14.550  -6.068  0.00  0.00    +0.041 C 
BRANCH  68  69
ATOM     69  CG  GLU A   4      24.426  13.076  -5.749  0.00  0.00    +0.116 C 
BRANCH  69  70
ATOM     70  CD  GLU A   4      25.806  12.589  -6.144  0.00  0.00    +0.365 C 
ATOM     71  OE2 GLU A   4      26.774  13.372  -6.028  0.00  0.00    -0.246 OA
ATOM     72  OE1 GLU A   4      25.912  11.402  -6.553  0.00  0.00    -0.246 OA
ENDBRANCH  69  70
ENDBRANCH  68  69
ENDBRANCH  39  68
ENDBRANCH   2  39
TORSDOF 32
REMARK  Name = ../refined-set-2016/3hk1/3hk1_pocket.pdb
REMARK  244 active torsions:
REMARK  status: ('A' for Active; 'I' for Inactive)
REMARK    1  A    between atoms: _1  and  _3
REMARK    2  A    between atoms: _3  and  _4
REMARK    3  A    between atoms: _3  and  _6
REMARK    4  A    between atoms: _6  and  _7
REMARK    5  A    between atoms: _10  and  _12
REMARK    6  A    between atoms: _12  and  _13
REMARK    7  A    between atoms: _12  and  _15
REMARK    8  A    between atoms: _18  and  _20
REMARK    9  A    between atoms: _20  and  _21
REMARK   10  A    between atoms: _20  and  _23
REMARK   11  A    between atoms: _23  and  _24
REMARK   12  A    between atoms: _26  and  _28
REMARK   13  A    between atoms: _28  and  _29
REMARK   14  A    between atoms: _28  and  _31
REMARK   15  A    between atoms: _31  and  _32
REMARK   16  A    between atoms: _34  and  _36
REMARK   17  A    between atoms: _36  and  _37
REMARK   18  A    between atoms: _36  and  _39
REMARK   19  A    between atoms: _39  and  _40
REMARK   20  A    between atoms: _46  and  _48
REMARK   21  A    between atoms: _48  and  _49
REMARK   22  A    between atoms: _48  and  _51
REMARK   23  A    between atoms: _51  and  _52
REMARK   24  A    between atoms: _57  and  _58
REMARK   25  A    between atoms: _60  and  _62
REMARK   26  A    between atoms: _62  and  _63
REMARK   27  A    between atoms: _62  and  _65
REMARK   28  A    between atoms: _65  and  _66
REMARK   29  A    between atoms: _66  and  _67
REMARK   30  A    between atoms: _69  and  _71
REMARK   31  A    between atoms: _71  and  _72
REMARK   32  A    between atoms: _71  and  _74
REMARK   33  A    between atoms: _74  and  _75
REMARK   34  A    between atoms: _75  and  _76
REMARK   35  A    between atoms: _76  and  _77
REMARK   36  A    between atoms: _77  and  _78
REMARK   37  A    between atoms: _82  and  _84
REMARK   38  A    between atoms: _84  and  _85
REMARK   39  A    between atoms: _84  and  _87
REMARK   40  A    between atoms: _87  and  _88
REMARK   41  A    between atoms: _88  and  _89
REMARK   42  A    between atoms: _92  and  _94
REMARK   43  A    between atoms: _94  and  _95
REMARK   44  A    between atoms: _94  and  _97
REMARK   45  A    between atoms: _100  and  _102
REMARK   46  A    between atoms: _102  and  _103
REMARK   47  A    between atoms: _105  and  _107
REMARK   48  A    between atoms: _107  and  _108
REMARK   49  A    between atoms: _107  and  _110
REMARK   50  A    between atoms: _113  and  _115
REMARK   51  A    between atoms: _115  and  _116
REMARK   52  A    between atoms: _118  and  _120
REMARK   53  A    between atoms: _120  and  _121
REMARK   54  A    between atoms: _124  and  _126
REMARK   55  A    between atoms: _126  and  _127
REMARK   56  A    between atoms: _126  and  _129
REMARK   57  A    between atoms: _129  and  _130
REMARK   58  A    between atoms: _133  and  _135
REMARK   59  A    between atoms: _135  and  _136
REMARK   60  A    between atoms: _135  and  _138
REMARK   61  A    between atoms: _138  and  _139
REMARK   62  A    between atoms: _139  and  _140
REMARK   63  A    between atoms: _140  and  _141
REMARK   64  A    between atoms: _150  and  _152
REMARK   65  A    between atoms: _152  and  _153
REMARK   66  A    between atoms: _152  and  _155
REMARK   67  A    between atoms: _155  and  _156
REMARK   68  A    between atoms: _156  and  _157
REMARK   69  A    between atoms: _157  and  _158
REMARK   70  A    between atoms: _158  and  _159
REMARK   71  A    between atoms: _163  and  _165
REMARK   72  A    between atoms: _165  and  _166
REMARK   73  A    between atoms: _165  and  _168
REMARK   74  A    between atoms: _171  and  _173
REMARK   75  A    between atoms: _173  and  _174
REMARK   76  A    between atoms: _177  and  _179
REMARK   77  A    between atoms: _179  and  _180
REMARK   78  A    between atoms: _182  and  _184
REMARK   79  A    between atoms: _184  and  _185
REMARK   80  A    between atoms: _184  and  _187
REMARK   81  A    between atoms: _187  and  _188
REMARK   82  A    between atoms: _188  and  _189
REMARK   83  A    between atoms: _191  and  _193
REMARK   84  A    between atoms: _193  and  _194
REMARK   85  A    between atoms: _197  and  _199
REMARK   86  A    between atoms: _199  and  _200
REMARK   87  A    between atoms: _199  and  _202
REMARK   88  A    between atoms: _202  and  _203
REMARK   89  A    between atoms: _203  and  _204
REMARK   90  A    between atoms: _204  and  _205
REMARK   91  A    between atoms: _205  and  _206
REMARK   92  A    between atoms: _211  and  _212
REMARK   93  A    between atoms: _217  and  _219
REMARK   94  A    between atoms: _219  and  _220
REMARK   95  A    between atoms: _219  and  _222
REMARK   96  A    between atoms: _222  and  _223
REMARK   97  A    between atoms: _228  and  _230
REMARK   98  A    between atoms: _230  and  _231
REMARK   99  A    between atoms: _230  and  _233
REMARK  100  A    between atoms: _233  and  _234
REMARK  101  A    between atoms: _234  and  _235
REMARK  102  A    between atoms: _237  and  _239
REMARK  103  A    between atoms: _239  and  _240
REMARK  104  A    between atoms: _239  and  _242
REMARK  105  A    between atoms: _242  and  _243
REMARK  106  A    between atoms: _246  and  _248
REMARK  107  A    between atoms: _248  and  _249
REMARK  108  A    between atoms: _248  and  _251
REMARK  109  A    between atoms: _251  and  _252
REMARK  110  A    between atoms: _252  and  _253
REMARK  111  A    between atoms: _253  and  _254
REMARK  112  A    between atoms: _263  and  _265
REMARK  113  A    between atoms: _265  and  _266
REMARK  114  A    between atoms: _265  and  _268
REMARK  115  A    between atoms: _268  and  _269
REMARK  116  A    between atoms: _271  and  _273
REMARK  117  A    between atoms: _273  and  _274
REMARK  118  A    between atoms: _273  and  _276
REMARK  119  A    between atoms: _276  and  _277
REMARK  120  A    between atoms: _277  and  _278
REMARK  121  A    between atoms: _281  and  _283
REMARK  122  A    between atoms: _283  and  _284
REMARK  123  A    between atoms: _283  and  _286
REMARK  124  A    between atoms: _286  and  _287
REMARK  125  A    between atoms: _289  and  _291
REMARK  126  A    between atoms: _291  and  _292
REMARK  127  A    between atoms: _291  and  _294
REMARK  128  A    between atoms: _294  and  _295
REMARK  129  A    between atoms: _298  and  _300
REMARK  130  A    between atoms: _300  and  _301
REMARK  131  A    between atoms: _300  and  _303
REMARK  132  A    between atoms: _303  and  _304
REMARK  133  A    between atoms: _310  and  _312
REMARK  134  A    between atoms: _312  and  _313
REMARK  135  A    between atoms: _312  and  _315
REMARK  136  A    between atoms: _315  and  _316
REMARK  137  A    between atoms: _316  and  _317
REMARK  138  A    between atoms: _317  and  _318
REMARK  139  A    between atoms: _318  and  _319
REMARK  140  A    between atoms: _323  and  _325
REMARK  141  A    between atoms: _325  and  _326
REMARK  142  A    between atoms: _325  and  _328
REMARK  143  A    between atoms: _328  and  _329
REMARK  144  A    between atoms: _334  and  _336
REMARK  145  A    between atoms: _336  and  _337
REMARK  146  A    between atoms: _336  and  _339
REMARK  147  A    between atoms: _339  and  _340
REMARK  148  A    between atoms: _343  and  _345
REMARK  149  A    between atoms: _345  and  _346
REMARK  150  A    between atoms: _345  and  _348
REMARK  151  A    between atoms: _348  and  _349
REMARK  152  A    between atoms: _352  and  _354
REMARK  153  A    between atoms: _354  and  _355
REMARK  154  A    between atoms: _358  and  _360
REMARK  155  A    between atoms: _360  and  _361
REMARK  156  A    between atoms: _360  and  _363
REMARK  157  A    between atoms: _363  and  _364
REMARK  158  A    between atoms: _367  and  _369
REMARK  159  A    between atoms: _369  and  _370
REMARK  160  A    between atoms: _369  and  _372
REMARK  161  A    between atoms: _372  and  _373
REMARK  162  A    between atoms: _376  and  _378
REMARK  163  A    between atoms: _378  and  _379
REMARK  164  A    between atoms: _378  and  _381
REMARK  165  A    between atoms: _381  and  _382
REMARK  166  A    between atoms: _382  and  _383
REMARK  167  A    between atoms: _383  and  _384
REMARK  168  A    between atoms: _393  and  _395
REMARK  169  A    between atoms: _395  and  _396
REMARK  170  A    between atoms: _395  and  _398
REMARK  171  A    between atoms: _398  and  _399
REMARK  172  A    between atoms: _399  and  _400
REMARK  173  A    between atoms: _405  and  _407
REMARK  174  A    between atoms: _407  and  _408
REMARK  175  A    between atoms: _407  and  _410
REMARK  176  A    between atoms: _410  and  _411
REMARK  177  A    between atoms: _411  and  _412
REMARK  178  A    between atoms: _417  and  _419
REMARK  179  A    between atoms: _419  and  _420
REMARK  180  A    between atoms: _419  and  _422
REMARK  181  A    between atoms: _422  and  _423
REMARK  182  A    between atoms: _433  and  _435
REMARK  183  A    between atoms: _435  and  _436
REMARK  184  A    between atoms: _435  and  _438
REMARK  185  A    between atoms: _438  and  _439
REMARK  186  A    between atoms: _442  and  _444
REMARK  187  A    between atoms: _444  and  _445
REMARK  188  A    between atoms: _444  and  _447
REMARK  189  A    between atoms: _447  and  _448
REMARK  190  A    between atoms: _451  and  _453
REMARK  191  A    between atoms: _453  and  _454
REMARK  192  A    between atoms: _453  and  _456
REMARK  193  A    between atoms: _456  and  _457
REMARK  194  A    between atoms: _457  and  _458
REMARK  195  A    between atoms: _458  and  _459
REMARK  196  A    between atoms: _459  and  _460
REMARK  197  A    between atoms: _464  and  _466
REMARK  198  A    between atoms: _466  and  _467
REMARK  199  A    between atoms: _466  and  _469
REMARK  200  A    between atoms: _469  and  _470
REMARK  201  A    between atoms: _470  and  _471
REMARK  202  A    between atoms: _471  and  _472
REMARK  203  A    between atoms: _481  and  _483
REMARK  204  A    between atoms: _483  and  _484
REMARK  205  A    between atoms: _483  and  _486
REMARK  206  A    between atoms: _486  and  _487
REMARK  207  A    between atoms: _490  and  _492
REMARK  208  A    between atoms: _492  and  _493
REMARK  209  A    between atoms: _492  and  _495
REMARK  210  A    between atoms: _498  and  _500
REMARK  211  A    between atoms: _500  and  _501
REMARK  212  A    between atoms: _500  and  _503
REMARK  213  A    between atoms: _503  and  _504
REMARK  214  A    between atoms: _504  and  _505
REMARK  215  A    between atoms: _508  and  _510
REMARK  216  A    between atoms: _510  and  _511
REMARK  217  A    between atoms: _510  and  _513
REMARK  218  A    between atoms: _515  and  _517
REMARK  219  A    between atoms: _517  and  _518
REMARK  220  A    between atoms: _517  and  _520
REMARK  221  A    between atoms: _520  and  _521
REMARK  222  A    between atoms: _521  and  _522
REMARK  223  A    between atoms: _524  and  _526
REMARK  224  A    between atoms: _526  and  _527
REMARK  225  A    between atoms: _526  and  _529
REMARK  226  A    between atoms: _529  and  _530
REMARK  227  A    between atoms: _532  and  _534
REMARK  228  A    between atoms: _534  and  _535
REMARK  229  A    between atoms: _534  and  _537
REMARK  230  A    between atoms: _537  and  _538
REMARK  231  A    between atoms: _541  and  _543
REMARK  232  A    between atoms: _543  and  _544
REMARK  233  A    between atoms: _543  and  _546
REMARK  234  A    between atoms: _546  and  _547
REMARK  235  A    between atoms: _547  and  _548
REMARK  236  A    between atoms: _548  and  _549
REMARK  237  A    between atoms: _558  and  _560
REMARK  238  A    between atoms: _560  and  _561
REMARK  239  A    between atoms: _560  and  _563
REMARK  240  A    between atoms: _566  and  _568
REMARK  241  A    between atoms: _568  and  _569
REMARK  242  A    between atoms: _568  and  _571
REMARK  243  A    between atoms: _571  and  _572
REMARK  244  A    between atoms: _577  and  _578
REMARK                            x       y       z     vdW  Elec       q    Type
REMARK                         _______ _______ _______ _____ _____    ______ ____
ROOT
ATOM      1  C   ALA A   6      14.561  25.910  -7.824  0.00  0.00    +0.241 C 
ATOM      2  O   ALA A   6      13.811  25.937  -6.836  0.00  0.00    -0.273 OA
ATOM      3  N   GLY A   7      15.705  26.583  -7.879  0.00  0.00    -0.295 N 
ATOM      4  H   GLY A   7      16.272  26.538  -8.750  0.00  0.00    +0.150 HD
ENDROOT
BRANCH   1   5
ATOM      5  CA  ALA A   6      14.197  25.101  -9.070  0.00  0.00    +0.149 C 
ATOM      6  CB  ALA A   6      14.884  23.725  -9.061  0.00  0.00    +0.031 C 
BRANCH   5   9
ATOM      7  C   VAL A   5      14.104  27.061 -10.547  0.00  0.00    +0.241 C 
ATOM      8  O   VAL A   5      13.342  27.677  -9.795  0.00  0.00    -0.273 OA
ATOM      9  N   ALA A   6      14.571  25.839 -10.283  0.00  0.00    -0.297 N 
ATOM     10  H   ALA A   6      15.223  25.394 -10.960  0.00  0.00    +0.150 HD
BRANCH   7  11
ATOM     11  CA  VAL A   5      14.574  27.690 -11.859  0.00  0.00    +0.149 C 
BRANCH  11  14
ATOM     12  C   LYS A   4      16.856  28.148 -11.106  0.00  0.00    +0.241 C 
ATOM     13  O   LYS A   4      16.472  28.794 -10.131  0.00  0.00    -0.273 OA
ATOM     14  N   VAL A   5      16.023  27.582 -11.978  0.00  0.00    -0.297 N 
ATOM     15  H   VAL A   5      16.421  27.043 -12.773  0.00  0.00    +0.150 HD
BRANCH  12  16
ATOM     16  CA  LYS A   4      18.355  27.927 -11.351  0.00  0.00    +0.149 C 
BRANCH  16  19
ATOM     17  C   ARG A   3      18.358  25.567 -10.689  0.00  0.00    +0.241 C 
ATOM     18  O   ARG A   3      17.880  25.825  -9.580  0.00  0.00    -0.273 OA
ATOM     19  N   LYS A   4      18.633  26.510 -11.595  0.00  0.00    -0.297 N 
ATOM     20  H   LYS A   4      19.058  26.229 -12.502  0.00  0.00    +0.150 HD
BRANCH  17  21
ATOM     21  CA  ARG A   3      18.673  24.124 -11.084  0.00  0.00    +0.149 C 
BRANCH  21  24
ATOM     22  C   THR A   2      17.090  24.050 -12.937  0.00  0.00    +0.243 C 
ATOM     23  O   THR A   2      16.158  24.371 -12.176  0.00  0.00    -0.273 OA
ATOM     24  N   ARG A   3      18.336  23.876 -12.504  0.00  0.00    -0.297 N 
ATOM     25  H   ARG A   3      19.076  23.565 -13.165  0.00  0.00    +0.150 HD
BRANCH  22  26
ATOM     26  CA  THR A   2      16.850  23.864 -14.443  0.00  0.00    +0.176 C 
BRANCH  26  29
ATOM     27  C   ALA A   1      18.144  25.762 -15.217  0.00  0.00    +0.238 C 
ATOM     28  O   ALA A   1      17.442  26.549 -14.574  0.00  0.00    -0.274 OA
ATOM     29  N   THR A   2      17.940  24.448 -15.225  0.00  0.00    -0.295 N 
ATOM     30  H   THR A   2      18.559  23.832 -15.790  0.00  0.00    +0.150 HD
BRANCH  27  31
ATOM     31  CA  ALA A   1      19.313  26.265 -16.070  0.00  0.00    +0.145 C 
ATOM     32  CB  ALA A   1      18.893  26.404 -17.532  0.00  0.00    +0.028 C 
BRANCH  31  33
ATOM     33  N   ALA A   1      20.464  25.370 -15.937  0.00  0.00    -0.238 NA
ATOM     34  H   ALA A   1      20.798  24.828 -16.759  0.00  0.00    +0.142 HD
ENDBRANCH  31  33
ENDBRANCH  27  31
ENDBRANCH  26  29
BRANCH  26  35
ATOM     35  CB  THR A   2      16.620  22.394 -14.830  0.00  0.00    +0.137 C 
ATOM     36  CG2 THR A   2      15.477  21.800 -13.987  0.00  0.00    +0.034 C 
BRANCH  35  37
ATOM     37  OG1 THR A   2      16.221  22.339 -16.211  0.00  0.00    -0.382 OA
ATOM     38  HG1 THR A   2      16.070  21.396 -16.472  0.00  0.00    +0.210 HD
ENDBRANCH  35  37
ENDBRANCH  26  35
ENDBRANCH  22  26
ENDBRANCH  21  24
BRANCH  21  39
ATOM     39  CB  ARG A   3      20.136  23.805 -10.782  0.00  0.00    +0.033 C 
BRANCH  39  40
ATOM     40  CG  ARG A   3      20.556  22.347 -10.992  0.00  0.00    +0.045 C 
BRANCH  40  41
ATOM     41  CD  ARG A   3      21.806  22.007 -10.196  0.00  0.00    +0.174 C 
BRANCH  41  42
ATOM     42  NE  ARG A   3      22.933  22.936 -10.403  0.00  0.00    -0.265 N 
ATOM     43  HE  ARG A   3      23.080  23.677  -9.688  0.00  0.00    +0.259 HD
ATOM     44  CZ  ARG A   3      23.778  22.901 -11.433  0.00  0.00    +0.342 C 
ATOM     45  NH2 ARG A   3      24.774  23.790 -11.498  0.00  0.00    -0.292 N 
ATOM     46 HH21 ARG A   3      24.885  24.502 -10.748  0.00  0.00    +0.255 HD
ATOM     47 HH22 ARG A   3      25.438  23.770 -12.298  0.00  0.00    +0.255 HD
ATOM     48  NH1 ARG A   3      23.639  22.006 -12.404  0.00  0.00    -0.292 N 
ATOM     49 HH11 ARG A   3      22.861  21.317 -12.369  0.00  0.00    +0.255 HD
ATOM     50 HH12 ARG A   3      24.308  21.994 -13.200  0.00  0.00    +0.255 HD
ENDBRANCH  41  42
ENDBRANCH  40  41
ENDBRANCH  39  40
ENDBRANCH  21  39
ENDBRANCH  17  21
ENDBRANCH  16  19
BRANCH  16  51
ATOM     51  CB  LYS A   4      18.851  28.760 -12.541  0.00  0.00    +0.029 C 
BRANCH  51  52
ATOM     52  CG  LYS A   4      18.738  30.242 -12.358  0.00  0.00    +0.000 C 
BRANCH  52  53
ATOM     53  CD  LYS A   4      19.474  30.933 -13.491  0.00  0.00    -0.024 C 
BRANCH  53  54
ATOM     54  CE  LYS A   4      19.659  32.407 -13.213  0.00  0.00    -0.086 C 
BRANCH  54  55
ATOM     55  NZ  LYS A   4      20.573  32.976 -14.250  0.00  0.00    +0.380 N 
ATOM     56  HZ1 LYS A   4      20.709  33.991 -14.071  0.00  0.00    -0.089 HD
ATOM     57  HZ2 LYS A   4      21.491  32.489 -14.206  0.00  0.00    -0.089 HD
ATOM     58  HZ3 LYS A   4      20.153  32.842 -15.192  0.00  0.00    -0.089 HD
ENDBRANCH  54  55
ENDBRANCH  53  54
ENDBRANCH  52  53
ENDBRANCH  51  52
ENDBRANCH  16  51
ENDBRANCH  12  16
ENDBRANCH  11  14
BRANCH  11  59
ATOM     59  CB  VAL A   5      13.856  27.018 -13.062  0.00  0.00    +0.027 C 
ATOM     60  CG2 VAL A   5      12.356  26.959 -12.821  0.00  0.00    +0.002 C 
ATOM     61  CG1 VAL A   5      14.146  27.786 -14.341  0.00  0.00    +0.002 C 
ENDBRANCH  11  59
ENDBRANCH   7  11
ENDBRANCH   5   9
ENDBRANCH   1   5
BRANCH   3  62
ATOM     62  CA  GLY A   7      16.197  27.387  -6.755  0.00  0.00    +0.176 C 
BRANCH  62  63
ATOM     63  C   GLY A   7      15.357  28.614  -6.456  0.00  0.00    +0.243 C 
ATOM     64  O   GLY A   7      15.223  29.002  -5.300  0.00  0.00    -0.273 OA
ATOM     65  N   MET A   8      14.788  29.227  -7.486  0.00  0.00    -0.297 N 
ATOM     66  H   MET A   8      14.867  28.815  -8.438  0.00  0.00    +0.150 HD
BRANCH  65  67
ATOM     67  CA  MET A   8      14.052  30.474  -7.298  0.00  0.00    +0.149 C 
BRANCH  67  68
ATOM     68  C   MET A   8      12.543  30.289  -7.096  0.00  0.00    +0.241 C 
ATOM     69  O   MET A   8      11.879  31.193  -6.600  0.00  0.00    -0.273 OA
ATOM     70  N   ALA A   9      12.017  29.128  -7.489  0.00  0.00    -0.297 N 
ATOM     71  H   ALA A   9      12.644  28.407  -7.901  0.00  0.00    +0.150 HD
BRANCH  70  72
ATOM     72  CA  ALA A   9      10.587  28.832  -7.361  0.00  0.00    +0.149 C 
ATOM     73  CB  ALA A   9      10.244  27.506  -8.057  0.00  0.00    +0.031 C 
BRANCH  72  74
ATOM     74  C   ALA A   9      10.156  28.798  -5.891  0.00  0.00    +0.241 C 
ATOM     75  O   ALA A   9      10.936  28.431  -5.014  0.00  0.00    -0.273 OA
ATOM     76  N   LYS A  10       8.914  29.214  -5.650  0.00  0.00    -0.297 N 
ATOM     77  H   LYS A  10       8.343  29.548  -6.452  0.00  0.00    +0.150 HD
BRANCH  76  78
ATOM     78  CA  LYS A  10       8.314  29.226  -4.325  0.00  0.00    +0.149 C 
BRANCH  78  79
ATOM     79  C   LYS A  10       7.074  28.333  -4.341  0.00  0.00    +0.244 C 
ATOM     80  N   PRO A  11       7.286  27.009  -4.350  0.00  0.00    -0.272 N 
ATOM     81  CD  PRO A  11       8.557  26.280  -4.145  0.00  0.00    +0.094 C 
ATOM     82  CG  PRO A  11       8.138  24.830  -4.113  0.00  0.00    +0.024 C 
ATOM     83  CB  PRO A  11       6.889  24.776  -4.930  0.00  0.00    +0.031 C 
ATOM     84  CA  PRO A  11       6.182  26.102  -4.605  0.00  0.00    +0.152 C 
ATOM     85  O   LYS A  10       5.942  28.829  -4.357  0.00  0.00    -0.273 OA
BRANCH  84  86
ATOM     86  C   PRO A  11       5.267  25.887  -3.413  0.00  0.00    +0.241 C 
ATOM     87  O   PRO A  11       5.697  26.021  -2.261  0.00  0.00    -0.273 OA
ATOM     88  N   ASN A  12       4.015  25.551  -3.707  0.00  0.00    -0.297 N 
ATOM     89  H   ASN A  12       3.636  25.760  -4.653  0.00  0.00    +0.150 HD
BRANCH  88  90
ATOM     90  CA  ASN A  12       3.166  24.894  -2.722  0.00  0.00    +0.158 C 
BRANCH  90  91
ATOM     91  C   ASN A  12       3.142  23.388  -3.006  0.00  0.00    +0.241 C 
ATOM     92  N   MET A  13       3.065  22.578  -1.954  0.00  0.00    -0.298 N 
ATOM     93  H   MET A  13       3.113  22.991  -1.001  0.00  0.00    +0.150 HD
ATOM     94  O   ASN A  12       3.204  22.986  -4.166  0.00  0.00    -0.273 OA
BRANCH  92  95
ATOM     95  CA  MET A  13       2.915  21.129  -2.086  0.00  0.00    +0.138 C 
BRANCH  95  96
ATOM     96  C   MET A  13       1.529  20.812  -1.553  0.00  0.00    +0.227 C 
ATOM     97  O   MET A  13       1.205  21.158  -0.409  0.00  0.00    -0.286 OA
ENDBRANCH  95  96
BRANCH  95  98
ATOM     98  CB  MET A  13       3.995  20.393  -1.294  0.00  0.00    +0.039 C 
BRANCH  98  99
ATOM     99  CG  MET A  13       3.947  18.888  -1.459  0.00  0.00    +0.060 C 
BRANCH  99 100
ATOM    100  SD  MET A  13       5.229  18.009  -0.570  0.00  0.00    -0.139 S 
ATOM    101  CE  MET A  13       6.705  18.491  -1.457  0.00  0.00    +0.069 C 
ENDBRANCH  99 100
ENDBRANCH  98  99
ENDBRANCH  95  98
ENDBRANCH  92  95
ENDBRANCH  90  91
BRANCH  90 102
ATOM    102  CB  ASN A  12       1.747  25.434  -2.780  0.00  0.00    +0.114 C 
BRANCH 102 103
ATOM    103  CG  ASN A  12       1.599  26.802  -2.117  0.00  0.00    +0.222 C 
ATOM    104  OD1 ASN A  12       2.553  27.386  -1.600  0.00  0.00    -0.275 OA
ATOM    105  ND2 ASN A  12       0.382  27.309  -2.127  0.00  0.00    -0.329 N 
ATOM    106 HD21 ASN A  12       0.200  28.234  -1.688  0.00  0.00    +0.145 HD
ATOM    107 HD22 ASN A  12      -0.396  26.784  -2.574  0.00  0.00    +0.145 HD
ENDBRANCH 102 103
ENDBRANCH  90 102
ENDBRANCH  88  90
ENDBRANCH  84  86
ENDBRANCH  78  79
BRANCH  78 108
ATOM    108  CB  LYS A  10       7.976  30.662  -3.909  0.00  0.00    +0.029 C 
BRANCH 108 109
ATOM    109  CG  LYS A  10       9.227  31.539  -3.713  0.00  0.00    +0.000 C 
BRANCH 109 110
ATOM    110  CD  LYS A  10      10.244  30.855  -2.788  0.00  0.00    -0.024 C 
BRANCH 110 111
ATOM    111  CE  LYS A  10      11.685  31.108  -3.246  0.00  0.00    -0.086 C 
BRANCH 111 112
ATOM    112  NZ  LYS A  10      12.525  29.873  -3.149  0.00  0.00    +0.380 N 
ATOM    113  HZ1 LYS A  10      12.548  29.548  -2.161  0.00  0.00    -0.089 HD
ATOM    114  HZ2 LYS A  10      13.492  30.087  -3.468  0.00  0.00    -0.089 HD
ATOM    115  HZ3 LYS A  10      12.117  29.129  -3.751  0.00  0.00    -0.089 HD
ENDBRANCH 111 112
ENDBRANCH 110 111
ENDBRANCH 109 110
ENDBRANCH 108 109
ENDBRANCH  78 108
ENDBRANCH  76  78
ENDBRANCH  72  74
ENDBRANCH  70  72
ENDBRANCH  67  68
BRANCH  67 116
ATOM    116  CB  MET A   8      14.358  31.480  -8.423  0.00  0.00    +0.041 C 
BRANCH 116 117
ATOM    117  CG  MET A   8      13.883  31.090  -9.818  0.00  0.00    +0.060 C 
BRANCH 117 118
ATOM    118  SD  MET A   8      14.476  32.227 -11.114  0.00  0.00    -0.139 S 
ATOM    119  CE  MET A   8      16.197  32.438 -10.670  0.00  0.00    +0.069 C 
ENDBRANCH 117 118
ENDBRANCH 116 117
ENDBRANCH  67 116
ENDBRANCH  65  67
ENDBRANCH  62  63
ENDBRANCH   3  62
TORSDOF 50
REMARK  Name = ../refined-set-2016/3hk1/3hk1_pocket.pdb
REMARK  244 active torsions:
REMARK  status: ('A' for Active; 'I' for Inactive)
REMARK    1  A    between atoms: _1  and  _3
REMARK    2  A    between atoms: _3  and  _4
REMARK    3  A    between atoms: _3  and  _6
REMARK    4  A    between atoms: _6  and  _7
REMARK    5  A    between atoms: _10  and  _12
REMARK    6  A    between atoms: _12  and  _13
REMARK    7  A    between atoms: _12  and  _15
REMARK    8  A    between atoms: _18  and  _20
REMARK    9  A    between atoms: _20  and  _21
REMARK   10  A    between atoms: _20  and  _23
REMARK   11  A    between atoms: _23  and  _24
REMARK   12  A    between atoms: _26  and  _28
REMARK   13  A    between atoms: _28  and  _29
REMARK   14  A    between atoms: _28  and  _31
REMARK   15  A    between atoms: _31  and  _32
REMARK   16  A    between atoms: _34  and  _36
REMARK   17  A    between atoms: _36  and  _37
REMARK   18  A    between atoms: _36  and  _39
REMARK   19  A    between atoms: _39  and  _40
REMARK   20  A    between atoms: _46  and  _48
REMARK   21  A    between atoms: _48  and  _49
REMARK   22  A    between atoms: _48  and  _51
REMARK   23  A    between atoms: _51  and  _52
REMARK   24  A    between atoms: _57  and  _58
REMARK   25  A    between atoms: _60  and  _62
REMARK   26  A    between atoms: _62  and  _63
REMARK   27  A    between atoms: _62  and  _65
REMARK   28  A    between atoms: _65  and  _66
REMARK   29  A    between atoms: _66  and  _67
REMARK   30  A    between atoms: _69  and  _71
REMARK   31  A    between atoms: _71  and  _72
REMARK   32  A    between atoms: _71  and  _74
REMARK   33  A    between atoms: _74  and  _75
REMARK   34  A    between atoms: _75  and  _76
REMARK   35  A    between atoms: _76  and  _77
REMARK   36  A    between atoms: _77  and  _78
REMARK   37  A    between atoms: _82  and  _84
REMARK   38  A    between atoms: _84  and  _85
REMARK   39  A    between atoms: _84  and  _87
REMARK   40  A    between atoms: _87  and  _88
REMARK   41  A    between atoms: _88  and  _89
REMARK   42  A    between atoms: _92  and  _94
REMARK   43  A    between atoms: _94  and  _95
REMARK   44  A    between atoms: _94  and  _97
REMARK   45  A    between atoms: _100  and  _102
REMARK   46  A    between atoms: _102  and  _103
REMARK   47  A    between atoms: _105  and  _107
REMARK   48  A    between atoms: _107  and  _108
REMARK   49  A    between atoms: _107  and  _110
REMARK   50  A    between atoms: _113  and  _115
REMARK   51  A    between atoms: _115  and  _116
REMARK   52  A    between atoms: _118  and  _120
REMARK   53  A    between atoms: _120  and  _121
REMARK   54  A    between atoms: _124  and  _126
REMARK   55  A    between atoms: _126  and  _127
REMARK   56  A    between atoms: _126  and  _129
REMARK   57  A    between atoms: _129  and  _130
REMARK   58  A    between atoms: _133  and  _135
REMARK   59  A    between atoms: _135  and  _136
REMARK   60  A    between atoms: _135  and  _138
REMARK   61  A    between atoms: _138  and  _139
REMARK   62  A    between atoms: _139  and  _140
REMARK   63  A    between atoms: _140  and  _141
REMARK   64  A    between atoms: _150  and  _152
REMARK   65  A    between atoms: _152  and  _153
REMARK   66  A    between atoms: _152  and  _155
REMARK   67  A    between atoms: _155  and  _156
REMARK   68  A    between atoms: _156  and  _157
REMARK   69  A    between atoms: _157  and  _158
REMARK   70  A    between atoms: _158  and  _159
REMARK   71  A    between atoms: _163  and  _165
REMARK   72  A    between atoms: _165  and  _166
REMARK   73  A    between atoms: _165  and  _168
REMARK   74  A    between atoms: _171  and  _173
REMARK   75  A    between atoms: _173  and  _174
REMARK   76  A    between atoms: _177  and  _179
REMARK   77  A    between atoms: _179  and  _180
REMARK   78  A    between atoms: _182  and  _184
REMARK   79  A    between atoms: _184  and  _185
REMARK   80  A    between atoms: _184  and  _187
REMARK   81  A    between atoms: _187  and  _188
REMARK   82  A    between atoms: _188  and  _189
REMARK   83  A    between atoms: _191  and  _193
REMARK   84  A    between atoms: _193  and  _194
REMARK   85  A    between atoms: _197  and  _199
REMARK   86  A    between atoms: _199  and  _200
REMARK   87  A    between atoms: _199  and  _202
REMARK   88  A    between atoms: _202  and  _203
REMARK   89  A    between atoms: _203  and  _204
REMARK   90  A    between atoms: _204  and  _205
REMARK   91  A    between atoms: _205  and  _206
REMARK   92  A    between atoms: _211  and  _212
REMARK   93  A    between atoms: _217  and  _219
REMARK   94  A    between atoms: _219  and  _220
REMARK   95  A    between atoms: _219  and  _222
REMARK   96  A    between atoms: _222  and  _223
REMARK   97  A    between atoms: _228  and  _230
REMARK   98  A    between atoms: _230  and  _231
REMARK   99  A    between atoms: _230  and  _233
REMARK  100  A    between atoms: _233  and  _234
REMARK  101  A    between atoms: _234  and  _235
REMARK  102  A    between atoms: _237  and  _239
REMARK  103  A    between atoms: _239  and  _240
REMARK  104  A    between atoms: _239  and  _242
REMARK  105  A    between atoms: _242  and  _243
REMARK  106  A    between atoms: _246  and  _248
REMARK  107  A    between atoms: _248  and  _249
REMARK  108  A    between atoms: _248  and  _251
REMARK  109  A    between atoms: _251  and  _252
REMARK  110  A    between atoms: _252  and  _253
REMARK  111  A    between atoms: _253  and  _254
REMARK  112  A    between atoms: _263  and  _265
REMARK  113  A    between atoms: _265  and  _266
REMARK  114  A    between atoms: _265  and  _268
REMARK  115  A    between atoms: _268  and  _269
REMARK  116  A    between atoms: _271  and  _273
REMARK  117  A    between atoms: _273  and  _274
REMARK  118  A    between atoms: _273  and  _276
REMARK  119  A    between atoms: _276  and  _277
REMARK  120  A    between atoms: _277  and  _278
REMARK  121  A    between atoms: _281  and  _283
REMARK  122  A    between atoms: _283  and  _284
REMARK  123  A    between atoms: _283  and  _286
REMARK  124  A    between atoms: _286  and  _287
REMARK  125  A    between atoms: _289  and  _291
REMARK  126  A    between atoms: _291  and  _292
REMARK  127  A    between atoms: _291  and  _294
REMARK  128  A    between atoms: _294  and  _295
REMARK  129  A    between atoms: _298  and  _300
REMARK  130  A    between atoms: _300  and  _301
REMARK  131  A    between atoms: _300  and  _303
REMARK  132  A    between atoms: _303  and  _304
REMARK  133  A    between atoms: _310  and  _312
REMARK  134  A    between atoms: _312  and  _313
REMARK  135  A    between atoms: _312  and  _315
REMARK  136  A    between atoms: _315  and  _316
REMARK  137  A    between atoms: _316  and  _317
REMARK  138  A    between atoms: _317  and  _318
REMARK  139  A    between atoms: _318  and  _319
REMARK  140  A    between atoms: _323  and  _325
REMARK  141  A    between atoms: _325  and  _326
REMARK  142  A    between atoms: _325  and  _328
REMARK  143  A    between atoms: _328  and  _329
REMARK  144  A    between atoms: _334  and  _336
REMARK  145  A    between atoms: _336  and  _337
REMARK  146  A    between atoms: _336  and  _339
REMARK  147  A    between atoms: _339  and  _340
REMARK  148  A    between atoms: _343  and  _345
REMARK  149  A    between atoms: _345  and  _346
REMARK  150  A    between atoms: _345  and  _348
REMARK  151  A    between atoms: _348  and  _349
REMARK  152  A    between atoms: _352  and  _354
REMARK  153  A    between atoms: _354  and  _355
REMARK  154  A    between atoms: _358  and  _360
REMARK  155  A    between atoms: _360  and  _361
REMARK  156  A    between atoms: _360  and  _363
REMARK  157  A    between atoms: _363  and  _364
REMARK  158  A    between atoms: _367  and  _369
REMARK  159  A    between atoms: _369  and  _370
REMARK  160  A    between atoms: _369  and  _372
REMARK  161  A    between atoms: _372  and  _373
REMARK  162  A    between atoms: _376  and  _378
REMARK  163  A    between atoms: _378  and  _379
REMARK  164  A    between atoms: _378  and  _381
REMARK  165  A    between atoms: _381  and  _382
REMARK  166  A    between atoms: _382  and  _383
REMARK  167  A    between atoms: _383  and  _384
REMARK  168  A    between atoms: _393  and  _395
REMARK  169  A    between atoms: _395  and  _396
REMARK  170  A    between atoms: _395  and  _398
REMARK  171  A    between atoms: _398  and  _399
REMARK  172  A    between atoms: _399  and  _400
REMARK  173  A    between atoms: _405  and  _407
REMARK  174  A    between atoms: _407  and  _408
REMARK  175  A    between atoms: _407  and  _410
REMARK  176  A    between atoms: _410  and  _411
REMARK  177  A    between atoms: _411  and  _412
REMARK  178  A    between atoms: _417  and  _419
REMARK  179  A    between atoms: _419  and  _420
REMARK  180  A    between atoms: _419  and  _422
REMARK  181  A    between atoms: _422  and  _423
REMARK  182  A    between atoms: _433  and  _435
REMARK  183  A    between atoms: _435  and  _436
REMARK  184  A    between atoms: _435  and  _438
REMARK  185  A    between atoms: _438  and  _439
REMARK  186  A    between atoms: _442  and  _444
REMARK  187  A    between atoms: _444  and  _445
REMARK  188  A    between atoms: _444  and  _447
REMARK  189  A    between atoms: _447  and  _448
REMARK  190  A    between atoms: _451  and  _453
REMARK  191  A    between atoms: _453  and  _454
REMARK  192  A    between atoms: _453  and  _456
REMARK  193  A    between atoms: _456  and  _457
REMARK  194  A    between atoms: _457  and  _458
REMARK  195  A    between atoms: _458  and  _459
REMARK  196  A    between atoms: _459  and  _460
REMARK  197  A    between atoms: _464  and  _466
REMARK  198  A    between atoms: _466  and  _467
REMARK  199  A    between atoms: _466  and  _469
REMARK  200  A    between atoms: _469  and  _470
REMARK  201  A    between atoms: _470  and  _471
REMARK  202  A    between atoms: _471  and  _472
REMARK  203  A    between atoms: _481  and  _483
REMARK  204  A    between atoms: _483  and  _484
REMARK  205  A    between atoms: _483  and  _486
REMARK  206  A    between atoms: _486  and  _487
REMARK  207  A    between atoms: _490  and  _492
REMARK  208  A    between atoms: _492  and  _493
REMARK  209  A    between atoms: _492  and  _495
REMARK  210  A    between atoms: _498  and  _500
REMARK  211  A    between atoms: _500  and  _501
REMARK  212  A    between atoms: _500  and  _503
REMARK  213  A    between atoms: _503  and  _504
REMARK  214  A    between atoms: _504  and  _505
REMARK  215  A    between atoms: _508  and  _510
REMARK  216  A    between atoms: _510  and  _511
REMARK  217  A    between atoms: _510  and  _513
REMARK  218  A    between atoms: _515  and  _517
REMARK  219  A    between atoms: _517  and  _518
REMARK  220  A    between atoms: _517  and  _520
REMARK  221  A    between atoms: _520  and  _521
REMARK  222  A    between atoms: _521  and  _522
REMARK  223  A    between atoms: _524  and  _526
REMARK  224  A    between atoms: _526  and  _527
REMARK  225  A    between atoms: _526  and  _529
REMARK  226  A    between atoms: _529  and  _530
REMARK  227  A    between atoms: _532  and  _534
REMARK  228  A    between atoms: _534  and  _535
REMARK  229  A    between atoms: _534  and  _537
REMARK  230  A    between atoms: _537  and  _538
REMARK  231  A    between atoms: _541  and  _543
REMARK  232  A    between atoms: _543  and  _544
REMARK  233  A    between atoms: _543  and  _546
REMARK  234  A    between atoms: _546  and  _547
REMARK  235  A    between atoms: _547  and  _548
REMARK  236  A    between atoms: _548  and  _549
REMARK  237  A    between atoms: _558  and  _560
REMARK  238  A    between atoms: _560  and  _561
REMARK  239  A    between atoms: _560  and  _563
REMARK  240  A    between atoms: _566  and  _568
REMARK  241  A    between atoms: _568  and  _569
REMARK  242  A    between atoms: _568  and  _571
REMARK  243  A    between atoms: _571  and  _572
REMARK  244  A    between atoms: _577  and  _578
REMARK                            x       y       z     vdW  Elec       q    Type
REMARK                         _______ _______ _______ _____ _____    ______ ____
ROOT
ATOM      1  C   SER A   5       4.438  27.926 -10.031  0.00  0.00    +0.243 C 
ATOM      2  N   THR A   6       4.842  29.191 -10.127  0.00  0.00    -0.295 N 
ATOM      3  H   THR A   6       5.229  29.672  -9.290  0.00  0.00    +0.150 HD
ATOM      4  O   SER A   5       3.966  27.291 -10.983  0.00  0.00    -0.273 OA
ENDROOT
BRANCH   1   5
ATOM      5  CA  SER A   5       4.642  27.256  -8.680  0.00  0.00    +0.178 C 
BRANCH   5   8
ATOM      6  C   GLU A   4       3.563  25.297  -7.689  0.00  0.00    +0.241 C 
ATOM      7  O   GLU A   4       3.691  25.699  -6.543  0.00  0.00    -0.273 OA
ATOM      8  N   SER A   5       4.040  25.925  -8.755  0.00  0.00    -0.295 N 
ATOM      9  H   SER A   5       3.984  25.453  -9.680  0.00  0.00    +0.150 HD
BRANCH   6  10
ATOM     10  CA  GLU A   4       2.810  24.015  -7.967  0.00  0.00    +0.149 C 
BRANCH  10  12
ATOM     11  C   SER A   3       3.470  21.711  -7.537  0.00  0.00    +0.243 C 
ATOM     12  N   GLU A   4       3.240  22.938  -7.073  0.00  0.00    -0.297 N 
ATOM     13  H   GLU A   4       3.368  23.134  -6.060  0.00  0.00    +0.150 HD
ATOM     14  O   SER A   3       3.421  21.417  -8.730  0.00  0.00    -0.273 OA
BRANCH  11  15
ATOM     15  CA  SER A   3       3.785  20.636  -6.510  0.00  0.00    +0.178 C 
BRANCH  15  18
ATOM     16  C   ARG A   2       2.057  19.058  -5.894  0.00  0.00    +0.241 C 
ATOM     17  O   ARG A   2       2.157  19.337  -4.709  0.00  0.00    -0.273 OA
ATOM     18  N   SER A   3       2.885  19.532  -6.813  0.00  0.00    -0.295 N 
ATOM     19  H   SER A   3       2.892  19.110  -7.764  0.00  0.00    +0.150 HD
BRANCH  16  20
ATOM     20  CA  ARG A   2       0.973  18.087  -6.360  0.00  0.00    +0.149 C 
BRANCH  20  22
ATOM     21  C   ILE A   1       1.152  15.807  -5.483  0.00  0.00    +0.238 C 
ATOM     22  N   ARG A   2       0.794  17.080  -5.311  0.00  0.00    -0.297 N 
ATOM     23  H   ARG A   2       0.375  17.367  -4.404  0.00  0.00    +0.150 HD
ATOM     24  O   ILE A   1       1.625  15.363  -6.536  0.00  0.00    -0.274 OA
BRANCH  21  25
ATOM     25  CA  ILE A   1       0.901  14.887  -4.299  0.00  0.00    +0.145 C 
BRANCH  25  26
ATOM     26  N   ILE A   1       0.017  13.800  -4.727  0.00  0.00    -0.238 NA
ATOM     27  H   ILE A   1       0.307  13.185  -5.514  0.00  0.00    +0.142 HD
ENDBRANCH  25  26
BRANCH  25  28
ATOM     28  CB  ILE A   1       2.243  14.369  -3.768  0.00  0.00    +0.025 C 
ATOM     29  CG2 ILE A   1       3.155  15.565  -3.393  0.00  0.00    +0.002 C 
BRANCH  28  30
ATOM     30  CG1 ILE A   1       1.993  13.413  -2.594  0.00  0.00    +0.002 C 
ATOM     31  CD1 ILE A   1       3.274  12.832  -1.975  0.00  0.00    +0.000 C 
ENDBRANCH  28  30
ENDBRANCH  25  28
ENDBRANCH  21  25
ENDBRANCH  20  22
BRANCH  20  32
ATOM     32  CB  ARG A   2      -0.298  18.912  -6.533  0.00  0.00    +0.033 C 
BRANCH  32  33
ATOM     33  CG  ARG A   2      -1.482  18.224  -7.135  0.00  0.00    +0.045 C 
BRANCH  33  34
ATOM     34  CD  ARG A   2      -2.588  19.273  -7.265  0.00  0.00    +0.174 C 
BRANCH  34  35
ATOM     35  NE  ARG A   2      -3.394  19.081  -8.468  0.00  0.00    -0.265 N 
ATOM     36  CZ  ARG A   2      -4.414  18.231  -8.541  0.00  0.00    +0.342 C 
ATOM     37  NH2 ARG A   2      -4.733  17.502  -7.480  0.00  0.00    -0.292 N 
ATOM     38 HH21 ARG A   2      -4.187  17.598  -6.600  0.00  0.00    +0.255 HD
ATOM     39 HH22 ARG A   2      -5.529  16.835  -7.528  0.00  0.00    +0.255 HD
ATOM     40  NH1 ARG A   2      -5.110  18.108  -9.663  0.00  0.00    -0.292 N 
ATOM     41 HH11 ARG A   2      -5.906  17.441  -9.711  0.00  0.00    +0.255 HD
ATOM     42 HH12 ARG A   2      -4.860  18.679 -10.495  0.00  0.00    +0.255 HD
ATOM     43  HE  ARG A   2      -3.157  19.639  -9.313  0.00  0.00    +0.259 HD
ENDBRANCH  34  35
ENDBRANCH  33  34
ENDBRANCH  32  33
ENDBRANCH  20  32
ENDBRANCH  16  20
ENDBRANCH  15  18
BRANCH  15  44
ATOM     44  CB  SER A   3       5.242  20.199  -6.641  0.00  0.00    +0.166 C 
BRANCH  44  45
ATOM     45  OG  SER A   3       6.106  21.314  -6.436  0.00  0.00    -0.380 OA
ATOM     46  H   SER A   3       5.912  22.009  -7.113  0.00  0.00    +0.211 HD
ENDBRANCH  44  45
ENDBRANCH  15  44
ENDBRANCH  11  15
ENDBRANCH  10  12
BRANCH  10  47
ATOM     47  CB  GLU A   4       1.302  24.270  -7.816  0.00  0.00    +0.041 C 
BRANCH  47  48
ATOM     48  CG  GLU A   4       0.478  23.061  -8.225  0.00  0.00    +0.116 C 
BRANCH  48  49
ATOM     49  CD  GLU A   4      -1.024  23.292  -8.246  0.00  0.00    +0.365 C 
ATOM     50  OE2 GLU A   4      -1.501  24.347  -7.757  0.00  0.00    -0.246 OA
ATOM     51  OE1 GLU A   4      -1.720  22.379  -8.743  0.00  0.00    -0.246 OA
ENDBRANCH  48  49
ENDBRANCH  47  48
ENDBRANCH  10  47
ENDBRANCH   6  10
ENDBRANCH   5   8
BRANCH   5  52
ATOM     52  CB  SER A   5       6.134  27.164  -8.364  0.00  0.00    +0.166 C 
BRANCH  52  53
ATOM     53  OG  SER A   5       6.890  26.871  -9.531  0.00  0.00    -0.380 OA
ATOM     54  H   SER A   5       7.850  26.818  -9.296  0.00  0.00    +0.211 HD
ENDBRANCH  52  53
ENDBRANCH   5  52
ENDBRANCH   1   5
BRANCH   2  55
ATOM     55  CA  THR A   6       4.747  29.914 -11.400  0.00  0.00    +0.176 C 
BRANCH  55  56
ATOM     56  C   THR A   6       5.628  29.281 -12.497  0.00  0.00    +0.243 C 
ATOM     57  N   PHE A   7       6.589  28.451 -12.086  0.00  0.00    -0.297 N 
ATOM     58  H   PHE A   7       6.634  28.200 -11.078  0.00  0.00    +0.150 HD
ATOM     59  O   THR A   6       5.422  29.529 -13.687  0.00  0.00    -0.273 OA
BRANCH  57  60
ATOM     60  CA  PHE A   7       7.579  27.882 -12.995  0.00  0.00    +0.153 C 
BRANCH  60  61
ATOM     61  C   PHE A   7       7.280  26.455 -13.421  0.00  0.00    +0.241 C 
ATOM     62  N   LYS A   8       6.625  25.695 -12.546  0.00  0.00    -0.297 N 
ATOM     63  H   LYS A   8       6.195  26.129 -11.705  0.00  0.00    +0.150 HD
ATOM     64  O   PHE A   7       7.661  26.038 -14.510  0.00  0.00    -0.273 OA
BRANCH  62  65
ATOM     65  CA  LYS A   8       6.507  24.256 -12.760  0.00  0.00    +0.149 C 
BRANCH  65  66
ATOM     66  C   LYS A   8       5.348  23.672 -11.969  0.00  0.00    +0.241 C 
ATOM     67  O   LYS A   8       5.160  24.014 -10.802  0.00  0.00    -0.273 OA
ATOM     68  N   ASN A   9       4.585  22.788 -12.613  0.00  0.00    -0.297 N 
ATOM     69  H   ASN A   9       4.739  22.632 -13.630  0.00  0.00    +0.150 HD
BRANCH  68  70
ATOM     70  CA  ASN A   9       3.538  22.032 -11.927  0.00  0.00    +0.158 C 
BRANCH  70  71
ATOM     71  C   ASN A   9       3.744  20.542 -12.170  0.00  0.00    +0.241 C 
ATOM     72  N   THR A  10       3.727  19.773 -11.086  0.00  0.00    -0.296 N 
ATOM     73  H   THR A  10       3.619  20.221 -10.153  0.00  0.00    +0.150 HD
ATOM     74  O   ASN A   9       3.940  20.107 -13.322  0.00  0.00    -0.273 OA
BRANCH  72  75
ATOM     75  CA  THR A  10       3.856  18.313 -11.162  0.00  0.00    +0.164 C 
BRANCH  75  76
ATOM     76  C   THR A  10       2.737  17.685 -10.328  0.00  0.00    +0.229 C 
ATOM     77  O   THR A  10       2.221  18.303  -9.391  0.00  0.00    -0.286 OA
ENDBRANCH  75  76
BRANCH  75  78
ATOM     78  CB  THR A  10       5.237  17.788 -10.638  0.00  0.00    +0.136 C 
ATOM     79  CG2 THR A  10       6.412  18.467 -11.337  0.00  0.00    +0.034 C 
BRANCH  78  80
ATOM     80  OG1 THR A  10       5.333  17.975  -9.216  0.00  0.00    -0.382 OA
ATOM     81  HG1 THR A  10       6.209  17.640  -8.899  0.00  0.00    +0.210 HD
ENDBRANCH  78  80
ENDBRANCH  75  78
ENDBRANCH  72  75
ENDBRANCH  70  71
BRANCH  70  82
ATOM     82  CB  ASN A   9       2.138  22.453 -12.394  0.00  0.00    +0.114 C 
BRANCH  82  83
ATOM     83  CG  ASN A   9       1.879  23.920 -12.200  0.00  0.00    +0.222 C 
ATOM     84  OD1 ASN A   9       1.829  24.411 -11.075  0.00  0.00    -0.275 OA
ATOM     85  ND2 ASN A   9       1.724  24.647 -13.308  0.00  0.00    -0.329 N 
ATOM     86 HD21 ASN A   9       1.553  25.671 -13.239  0.00  0.00    +0.145 HD
ATOM     87 HD22 ASN A   9       1.774  24.190 -14.241  0.00  0.00    +0.145 HD
ENDBRANCH  82  83
ENDBRANCH  70  82
ENDBRANCH  68  70
ENDBRANCH  65  66
BRANCH  65  88
ATOM     88  CB  LYS A   8       7.808  23.565 -12.328  0.00  0.00    +0.029 C 
BRANCH  88  89
ATOM     89  CG  LYS A   8       7.858  22.064 -12.598  0.00  0.00    +0.000 C 
BRANCH  89  90
ATOM     90  CD  LYS A   8       8.189  21.819 -14.050  0.00  0.00    -0.024 C 
BRANCH  90  91
ATOM     91  CE  LYS A   8       8.167  20.355 -14.390  0.00  0.00    -0.086 C 
BRANCH  91  92
ATOM     92  NZ  LYS A   8       8.504  20.201 -15.828  0.00  0.00    +0.380 N 
ATOM     93  HZ1 LYS A   8       9.451  20.593 -16.005  0.00  0.00    -0.089 HD
ATOM     94  HZ2 LYS A   8       8.493  19.192 -16.079  0.00  0.00    -0.089 HD
ATOM     95  HZ3 LYS A   8       7.803  20.711 -16.403  0.00  0.00    -0.089 HD
ENDBRANCH  91  92
ENDBRANCH  90  91
ENDBRANCH  89  90
ENDBRANCH  88  89
ENDBRANCH  65  88
ENDBRANCH  62  65
ENDBRANCH  60  61
BRANCH  60  96
ATOM     96  CB  PHE A   7       8.972  27.907 -12.354  0.00  0.00    +0.055 C 
BRANCH  96  97
ATOM     97  CG  PHE A   7       9.477  29.284 -12.052  0.00  0.00    -0.020 A 
ATOM     98  CD2 PHE A   7       9.270  29.853 -10.794  0.00  0.00    -0.004 A 
ATOM     99  CE2 PHE A   7       9.733  31.136 -10.506  0.00  0.00    -0.000 A 
ATOM    100  CZ  PHE A   7      10.415  31.859 -11.485  0.00  0.00    -0.000 A 
ATOM    101  CE1 PHE A   7      10.628  31.299 -12.747  0.00  0.00    -0.000 A 
ATOM    102  CD1 PHE A   7      10.158  30.015 -13.023  0.00  0.00    -0.004 A 
ENDBRANCH  96  97
ENDBRANCH  60  96
ENDBRANCH  57  60
ENDBRANCH  55  56
BRANCH  55 103
ATOM    103  CB  THR A   6       5.089  31.426 -11.228  0.00  0.00    +0.137 C 
ATOM    104  CG2 THR A   6       4.309  32.024 -10.071  0.00  0.00    +0.034 C 
BRANCH 103 105
ATOM    105  OG1 THR A   6       6.486  31.581 -10.967  0.00  0.00    -0.382 OA
ATOM    106  HG1 THR A   6       6.721  31.095 -10.137  0.00  0.00    +0.210 HD
ENDBRANCH 103 105
ENDBRANCH  55 103
ENDBRANCH   2  55
TORSDOF 46
REMARK  Name = ../refined-set-2016/3hk1/3hk1_pocket.pdb
REMARK  244 active torsions:
REMARK  status: ('A' for Active; 'I' for Inactive)
REMARK    1  A    between atoms: _1  and  _3
REMARK    2  A    between atoms: _3  and  _4
REMARK    3  A    between atoms: _3  and  _6
REMARK    4  A    between atoms: _6  and  _7
REMARK    5  A    between atoms: _10  and  _12
REMARK    6  A    between atoms: _12  and  _13
REMARK    7  A    between atoms: _12  and  _15
REMARK    8  A    between atoms: _18  and  _20
REMARK    9  A    between atoms: _20  and  _21
REMARK   10  A    between atoms: _20  and  _23
REMARK   11  A    between atoms: _23  and  _24
REMARK   12  A    between atoms: _26  and  _28
REMARK   13  A    between atoms: _28  and  _29
REMARK   14  A    between atoms: _28  and  _31
REMARK   15  A    between atoms: _31  and  _32
REMARK   16  A    between atoms: _34  and  _36
REMARK   17  A    between atoms: _36  and  _37
REMARK   18  A    between atoms: _36  and  _39
REMARK   19  A    between atoms: _39  and  _40
REMARK   20  A    between atoms: _46  and  _48
REMARK   21  A    between atoms: _48  and  _49
REMARK   22  A    between atoms: _48  and  _51
REMARK   23  A    between atoms: _51  and  _52
REMARK   24  A    between atoms: _57  and  _58
REMARK   25  A    between atoms: _60  and  _62
REMARK   26  A    between atoms: _62  and  _63
REMARK   27  A    between atoms: _62  and  _65
REMARK   28  A    between atoms: _65  and  _66
REMARK   29  A    between atoms: _66  and  _67
REMARK   30  A    between atoms: _69  and  _71
REMARK   31  A    between atoms: _71  and  _72
REMARK   32  A    between atoms: _71  and  _74
REMARK   33  A    between atoms: _74  and  _75
REMARK   34  A    between atoms: _75  and  _76
REMARK   35  A    between atoms: _76  and  _77
REMARK   36  A    between atoms: _77  and  _78
REMARK   37  A    between atoms: _82  and  _84
REMARK   38  A    between atoms: _84  and  _85
REMARK   39  A    between atoms: _84  and  _87
REMARK   40  A    between atoms: _87  and  _88
REMARK   41  A    between atoms: _88  and  _89
REMARK   42  A    between atoms: _92  and  _94
REMARK   43  A    between atoms: _94  and  _95
REMARK   44  A    between atoms: _94  and  _97
REMARK   45  A    between atoms: _100  and  _102
REMARK   46  A    between atoms: _102  and  _103
REMARK   47  A    between atoms: _105  and  _107
REMARK   48  A    between atoms: _107  and  _108
REMARK   49  A    between atoms: _107  and  _110
REMARK   50  A    between atoms: _113  and  _115
REMARK   51  A    between atoms: _115  and  _116
REMARK   52  A    between atoms: _118  and  _120
REMARK   53  A    between atoms: _120  and  _121
REMARK   54  A    between atoms: _124  and  _126
REMARK   55  A    between atoms: _126  and  _127
REMARK   56  A    between atoms: _126  and  _129
REMARK   57  A    between atoms: _129  and  _130
REMARK   58  A    between atoms: _133  and  _135
REMARK   59  A    between atoms: _135  and  _136
REMARK   60  A    between atoms: _135  and  _138
REMARK   61  A    between atoms: _138  and  _139
REMARK   62  A    between atoms: _139  and  _140
REMARK   63  A    between atoms: _140  and  _141
REMARK   64  A    between atoms: _150  and  _152
REMARK   65  A    between atoms: _152  and  _153
REMARK   66  A    between atoms: _152  and  _155
REMARK   67  A    between atoms: _155  and  _156
REMARK   68  A    between atoms: _156  and  _157
REMARK   69  A    between atoms: _157  and  _158
REMARK   70  A    between atoms: _158  and  _159
REMARK   71  A    between atoms: _163  and  _165
REMARK   72  A    between atoms: _165  and  _166
REMARK   73  A    between atoms: _165  and  _168
REMARK   74  A    between atoms: _171  and  _173
REMARK   75  A    between atoms: _173  and  _174
REMARK   76  A    between atoms: _177  and  _179
REMARK   77  A    between atoms: _179  and  _180
REMARK   78  A    between atoms: _182  and  _184
REMARK   79  A    between atoms: _184  and  _185
REMARK   80  A    between atoms: _184  and  _187
REMARK   81  A    between atoms: _187  and  _188
REMARK   82  A    between atoms: _188  and  _189
REMARK   83  A    between atoms: _191  and  _193
REMARK   84  A    between atoms: _193  and  _194
REMARK   85  A    between atoms: _197  and  _199
REMARK   86  A    between atoms: _199  and  _200
REMARK   87  A    between atoms: _199  and  _202
REMARK   88  A    between atoms: _202  and  _203
REMARK   89  A    between atoms: _203  and  _204
REMARK   90  A    between atoms: _204  and  _205
REMARK   91  A    between atoms: _205  and  _206
REMARK   92  A    between atoms: _211  and  _212
REMARK   93  A    between atoms: _217  and  _219
REMARK   94  A    between atoms: _219  and  _220
REMARK   95  A    between atoms: _219  and  _222
REMARK   96  A    between atoms: _222  and  _223
REMARK   97  A    between atoms: _228  and  _230
REMARK   98  A    between atoms: _230  and  _231
REMARK   99  A    between atoms: _230  and  _233
REMARK  100  A    between atoms: _233  and  _234
REMARK  101  A    between atoms: _234  and  _235
REMARK  102  A    between atoms: _237  and  _239
REMARK  103  A    between atoms: _239  and  _240
REMARK  104  A    between atoms: _239  and  _242
REMARK  105  A    between atoms: _242  and  _243
REMARK  106  A    between atoms: _246  and  _248
REMARK  107  A    between atoms: _248  and  _249
REMARK  108  A    between atoms: _248  and  _251
REMARK  109  A    between atoms: _251  and  _252
REMARK  110  A    between atoms: _252  and  _253
REMARK  111  A    between atoms: _253  and  _254
REMARK  112  A    between atoms: _263  and  _265
REMARK  113  A    between atoms: _265  and  _266
REMARK  114  A    between atoms: _265  and  _268
REMARK  115  A    between atoms: _268  and  _269
REMARK  116  A    between atoms: _271  and  _273
REMARK  117  A    between atoms: _273  and  _274
REMARK  118  A    between atoms: _273  and  _276
REMARK  119  A    between atoms: _276  and  _277
REMARK  120  A    between atoms: _277  and  _278
REMARK  121  A    between atoms: _281  and  _283
REMARK  122  A    between atoms: _283  and  _284
REMARK  123  A    between atoms: _283  and  _286
REMARK  124  A    between atoms: _286  and  _287
REMARK  125  A    between atoms: _289  and  _291
REMARK  126  A    between atoms: _291  and  _292
REMARK  127  A    between atoms: _291  and  _294
REMARK  128  A    between atoms: _294  and  _295
REMARK  129  A    between atoms: _298  and  _300
REMARK  130  A    between atoms: _300  and  _301
REMARK  131  A    between atoms: _300  and  _303
REMARK  132  A    between atoms: _303  and  _304
REMARK  133  A    between atoms: _310  and  _312
REMARK  134  A    between atoms: _312  and  _313
REMARK  135  A    between atoms: _312  and  _315
REMARK  136  A    between atoms: _315  and  _316
REMARK  137  A    between atoms: _316  and  _317
REMARK  138  A    between atoms: _317  and  _318
REMARK  139  A    between atoms: _318  and  _319
REMARK  140  A    between atoms: _323  and  _325
REMARK  141  A    between atoms: _325  and  _326
REMARK  142  A    between atoms: _325  and  _328
REMARK  143  A    between atoms: _328  and  _329
REMARK  144  A    between atoms: _334  and  _336
REMARK  145  A    between atoms: _336  and  _337
REMARK  146  A    between atoms: _336  and  _339
REMARK  147  A    between atoms: _339  and  _340
REMARK  148  A    between atoms: _343  and  _345
REMARK  149  A    between atoms: _345  and  _346
REMARK  150  A    between atoms: _345  and  _348
REMARK  151  A    between atoms: _348  and  _349
REMARK  152  A    between atoms: _352  and  _354
REMARK  153  A    between atoms: _354  and  _355
REMARK  154  A    between atoms: _358  and  _360
REMARK  155  A    between atoms: _360  and  _361
REMARK  156  A    between atoms: _360  and  _363
REMARK  157  A    between atoms: _363  and  _364
REMARK  158  A    between atoms: _367  and  _369
REMARK  159  A    between atoms: _369  and  _370
REMARK  160  A    between atoms: _369  and  _372
REMARK  161  A    between atoms: _372  and  _373
REMARK  162  A    between atoms: _376  and  _378
REMARK  163  A    between atoms: _378  and  _379
REMARK  164  A    between atoms: _378  and  _381
REMARK  165  A    between atoms: _381  and  _382
REMARK  166  A    between atoms: _382  and  _383
REMARK  167  A    between atoms: _383  and  _384
REMARK  168  A    between atoms: _393  and  _395
REMARK  169  A    between atoms: _395  and  _396
REMARK  170  A    between atoms: _395  and  _398
REMARK  171  A    between atoms: _398  and  _399
REMARK  172  A    between atoms: _399  and  _400
REMARK  173  A    between atoms: _405  and  _407
REMARK  174  A    between atoms: _407  and  _408
REMARK  175  A    between atoms: _407  and  _410
REMARK  176  A    between atoms: _410  and  _411
REMARK  177  A    between atoms: _411  and  _412
REMARK  178  A    between atoms: _417  and  _419
REMARK  179  A    between atoms: _419  and  _420
REMARK  180  A    between atoms: _419  and  _422
REMARK  181  A    between atoms: _422  and  _423
REMARK  182  A    between atoms: _433  and  _435
REMARK  183  A    between atoms: _435  and  _436
REMARK  184  A    between atoms: _435  and  _438
REMARK  185  A    between atoms: _438  and  _439
REMARK  186  A    between atoms: _442  and  _444
REMARK  187  A    between atoms: _444  and  _445
REMARK  188  A    between atoms: _444  and  _447
REMARK  189  A    between atoms: _447  and  _448
REMARK  190  A    between atoms: _451  and  _453
REMARK  191  A    between atoms: _453  and  _454
REMARK  192  A    between atoms: _453  and  _456
REMARK  193  A    between atoms: _456  and  _457
REMARK  194  A    between atoms: _457  and  _458
REMARK  195  A    between atoms: _458  and  _459
REMARK  196  A    between atoms: _459  and  _460
REMARK  197  A    between atoms: _464  and  _466
REMARK  198  A    between atoms: _466  and  _467
REMARK  199  A    between atoms: _466  and  _469
REMARK  200  A    between atoms: _469  and  _470
REMARK  201  A    between atoms: _470  and  _471
REMARK  202  A    between atoms: _471  and  _472
REMARK  203  A    between atoms: _481  and  _483
REMARK  204  A    between atoms: _483  and  _484
REMARK  205  A    between atoms: _483  and  _486
REMARK  206  A    between atoms: _486  and  _487
REMARK  207  A    between atoms: _490  and  _492
REMARK  208  A    between atoms: _492  and  _493
REMARK  209  A    between atoms: _492  and  _495
REMARK  210  A    between atoms: _498  and  _500
REMARK  211  A    between atoms: _500  and  _501
REMARK  212  A    between atoms: _500  and  _503
REMARK  213  A    between atoms: _503  and  _504
REMARK  214  A    between atoms: _504  and  _505
REMARK  215  A    between atoms: _508  and  _510
REMARK  216  A    between atoms: _510  and  _511
REMARK  217  A    between atoms: _510  and  _513
REMARK  218  A    between atoms: _515  and  _517
REMARK  219  A    between atoms: _517  and  _518
REMARK  220  A    between atoms: _517  and  _520
REMARK  221  A    between atoms: _520  and  _521
REMARK  222  A    between atoms: _521  and  _522
REMARK  223  A    between atoms: _524  and  _526
REMARK  224  A    between atoms: _526  and  _527
REMARK  225  A    between atoms: _526  and  _529
REMARK  226  A    between atoms: _529  and  _530
REMARK  227  A    between atoms: _532  and  _534
REMARK  228  A    between atoms: _534  and  _535
REMARK  229  A    between atoms: _534  and  _537
REMARK  230  A    between atoms: _537  and  _538
REMARK  231  A    between atoms: _541  and  _543
REMARK  232  A    between atoms: _543  and  _544
REMARK  233  A    between atoms: _543  and  _546
REMARK  234  A    between atoms: _546  and  _547
REMARK  235  A    between atoms: _547  and  _548
REMARK  236  A    between atoms: _548  and  _549
REMARK  237  A    between atoms: _558  and  _560
REMARK  238  A    between atoms: _560  and  _561
REMARK  239  A    between atoms: _560  and  _563
REMARK  240  A    between atoms: _566  and  _568
REMARK  241  A    between atoms: _568  and  _569
REMARK  242  A    between atoms: _568  and  _571
REMARK  243  A    between atoms: _571  and  _572
REMARK  244  A    between atoms: _577  and  _578
REMARK                            x       y       z     vdW  Elec       q    Type
REMARK                         _______ _______ _______ _____ _____    ______ ____
ROOT
ATOM      1  C   ASP A   3      13.773  16.731 -15.077  0.00  0.00    +0.241 C 
ATOM      2  N   ASP A   4      12.626  16.117 -15.378  0.00  0.00    -0.297 N 
ATOM      3  H   ASP A   4      11.832  16.189 -14.710  0.00  0.00    +0.150 HD
ATOM      4  O   ASP A   3      14.817  16.577 -15.717  0.00  0.00    -0.273 OA
ENDROOT
BRANCH   1   5
ATOM      5  CA  ASP A   3      13.734  17.639 -13.837  0.00  0.00    +0.160 C 
BRANCH   5   7
ATOM      6  C   ALA A   2      11.383  18.166 -13.253  0.00  0.00    +0.241 C 
ATOM      7  N   ASP A   3      12.503  17.466 -13.029  0.00  0.00    -0.297 N 
ATOM      8  H   ASP A   3      12.509  16.771 -12.255  0.00  0.00    +0.150 HD
ATOM      9  O   ALA A   2      11.277  19.046 -14.140  0.00  0.00    -0.273 OA
BRANCH   6  10
ATOM     10  CA  ALA A   2      10.189  17.837 -12.350  0.00  0.00    +0.149 C 
ATOM     11  CB  ALA A   2      10.193  18.705 -11.098  0.00  0.00    +0.031 C 
BRANCH  10  13
ATOM     12  C   THR A   1      10.084  15.464 -12.932  0.00  0.00    +0.241 C 
ATOM     13  N   ALA A   2      10.155  16.411 -11.995  0.00  0.00    -0.297 N 
ATOM     14  H   ALA A   2      10.187  16.135 -10.993  0.00  0.00    +0.150 HD
ATOM     15  O   THR A   1      10.046  15.706 -14.140  0.00  0.00    -0.274 OA
BRANCH  12  16
ATOM     16  CA  THR A   1      10.058  14.005 -12.437  0.00  0.00    +0.172 C 
BRANCH  16  17
ATOM     17  CB  THR A   1      11.410  13.668 -11.787  0.00  0.00    +0.135 C 
ATOM     18  CG2 THR A   1      11.441  12.194 -11.309  0.00  0.00    +0.034 C 
BRANCH  17  19
ATOM     19  OG1 THR A   1      12.452  13.885 -12.745  0.00  0.00    -0.383 OA
ATOM     20  HG1 THR A   1      13.327  13.670 -12.334  0.00  0.00    +0.210 HD
ENDBRANCH  17  19
ENDBRANCH  16  17
BRANCH  16  21
ATOM     21  N   THR A   1       9.753  13.086 -13.531  0.00  0.00    -0.236 NA
ATOM     22  H   THR A   1      10.523  12.557 -13.989  0.00  0.00    +0.142 HD
ENDBRANCH  16  21
ENDBRANCH  12  16
ENDBRANCH  10  13
ENDBRANCH   6  10
ENDBRANCH   5   7
BRANCH   5  23
ATOM     23  CB  ASP A   3      15.016  17.476 -12.984  0.00  0.00    +0.143 C 
BRANCH  23  24
ATOM     24  CG  ASP A   3      15.112  16.121 -12.310  0.00  0.00    +0.367 C 
ATOM     25  OD2 ASP A   3      14.114  15.715 -11.656  0.00  0.00    -0.246 OA
ATOM     26  OD1 ASP A   3      16.182  15.462 -12.405  0.00  0.00    -0.246 OA
ENDBRANCH  23  24
ENDBRANCH   5  23
ENDBRANCH   1   5
BRANCH   2  27
ATOM     27  CA  ASP A   4      12.440  15.346 -16.609  0.00  0.00    +0.160 C 
BRANCH  27  28
ATOM     28  C   ASP A   4      13.193  14.009 -16.660  0.00  0.00    +0.241 C 
ATOM     29  N   ARG A   5      13.393  13.377 -15.506  0.00  0.00    -0.298 N 
ATOM     30  H   ARG A   5      13.229  13.877 -14.609  0.00  0.00    +0.150 HD
ATOM     31  O   ASP A   4      13.597  13.556 -17.740  0.00  0.00    -0.273 OA
BRANCH  29  32
ATOM     32  CA  ARG A   5      13.842  11.982 -15.490  0.00  0.00    +0.137 C 
BRANCH  32  33
ATOM     33  C   ARG A   5      12.606  11.086 -15.573  0.00  0.00    +0.227 C 
ATOM     34  O   ARG A   5      11.580  11.395 -14.964  0.00  0.00    -0.286 OA
ENDBRANCH  32  33
BRANCH  32  35
ATOM     35  CB  ARG A   5      14.578  11.650 -14.186  0.00  0.00    +0.031 C 
BRANCH  35  36
ATOM     36  CG  ARG A   5      16.005  12.186 -14.071  0.00  0.00    +0.045 C 
BRANCH  36  37
ATOM     37  CD  ARG A   5      16.557  11.983 -12.667  0.00  0.00    +0.174 C 
BRANCH  37  38
ATOM     38  NE  ARG A   5      15.853  12.854 -11.723  0.00  0.00    -0.265 N 
ATOM     39  CZ  ARG A   5      15.290  12.489 -10.573  0.00  0.00    +0.342 C 
ATOM     40  NH2 ARG A   5      14.642  13.414  -9.865  0.00  0.00    -0.292 N 
ATOM     41 HH21 ARG A   5      14.192  13.158  -8.963  0.00  0.00    +0.255 HD
ATOM     42 HH22 ARG A   5      14.586  14.392 -10.215  0.00  0.00    +0.255 HD
ATOM     43  NH1 ARG A   5      15.381  11.246 -10.107  0.00  0.00    -0.292 N 
ATOM     44 HH11 ARG A   5      14.929  10.995  -9.205  0.00  0.00    +0.255 HD
ATOM     45 HH12 ARG A   5      15.904  10.526 -10.645  0.00  0.00    +0.255 HD
ATOM     46  HE  ARG A   5      15.786  13.860 -11.977  0.00  0.00    +0.259 HD
ENDBRANCH  37  38
ENDBRANCH  36  37
ENDBRANCH  35  36
ENDBRANCH  32  35
ENDBRANCH  29  32
ENDBRANCH  27  28
BRANCH  27  47
ATOM     47  CB  ASP A   4      12.784  16.207 -17.844  0.00  0.00    +0.143 C 
BRANCH  47  48
ATOM     48  CG  ASP A   4      12.197  15.654 -19.122  0.00  0.00    +0.367 C 
ATOM     49  OD2 ASP A   4      11.045  15.156 -19.096  0.00  0.00    -0.246 OA
ATOM     50  OD1 ASP A   4      12.897  15.718 -20.156  0.00  0.00    -0.246 OA
ENDBRANCH  47  48
ENDBRANCH  27  47
ENDBRANCH   2  27
TORSDOF 20
REMARK  Name = ../refined-set-2016/3hk1/3hk1_pocket.pdb
REMARK  244 active torsions:
REMARK  status: ('A' for Active; 'I' for Inactive)
REMARK    1  A    between atoms: _1  and  _3
REMARK    2  A    between atoms: _3  and  _4
REMARK    3  A    between atoms: _3  and  _6
REMARK    4  A    between atoms: _6  and  _7
REMARK    5  A    between atoms: _10  and  _12
REMARK    6  A    between atoms: _12  and  _13
REMARK    7  A    between atoms: _12  and  _15
REMARK    8  A    between atoms: _18  and  _20
REMARK    9  A    between atoms: _20  and  _21
REMARK   10  A    between atoms: _20  and  _23
REMARK   11  A    between atoms: _23  and  _24
REMARK   12  A    between atoms: _26  and  _28
REMARK   13  A    between atoms: _28  and  _29
REMARK   14  A    between atoms: _28  and  _31
REMARK   15  A    between atoms: _31  and  _32
REMARK   16  A    between atoms: _34  and  _36
REMARK   17  A    between atoms: _36  and  _37
REMARK   18  A    between atoms: _36  and  _39
REMARK   19  A    between atoms: _39  and  _40
REMARK   20  A    between atoms: _46  and  _48
REMARK   21  A    between atoms: _48  and  _49
REMARK   22  A    between atoms: _48  and  _51
REMARK   23  A    between atoms: _51  and  _52
REMARK   24  A    between atoms: _57  and  _58
REMARK   25  A    between atoms: _60  and  _62
REMARK   26  A    between atoms: _62  and  _63
REMARK   27  A    between atoms: _62  and  _65
REMARK   28  A    between atoms: _65  and  _66
REMARK   29  A    between atoms: _66  and  _67
REMARK   30  A    between atoms: _69  and  _71
REMARK   31  A    between atoms: _71  and  _72
REMARK   32  A    between atoms: _71  and  _74
REMARK   33  A    between atoms: _74  and  _75
REMARK   34  A    between atoms: _75  and  _76
REMARK   35  A    between atoms: _76  and  _77
REMARK   36  A    between atoms: _77  and  _78
REMARK   37  A    between atoms: _82  and  _84
REMARK   38  A    between atoms: _84  and  _85
REMARK   39  A    between atoms: _84  and  _87
REMARK   40  A    between atoms: _87  and  _88
REMARK   41  A    between atoms: _88  and  _89
REMARK   42  A    between atoms: _92  and  _94
REMARK   43  A    between atoms: _94  and  _95
REMARK   44  A    between atoms: _94  and  _97
REMARK   45  A    between atoms: _100  and  _102
REMARK   46  A    between atoms: _102  and  _103
REMARK   47  A    between atoms: _105  and  _107
REMARK   48  A    between atoms: _107  and  _108
REMARK   49  A    between atoms: _107  and  _110
REMARK   50  A    between atoms: _113  and  _115
REMARK   51  A    between atoms: _115  and  _116
REMARK   52  A    between atoms: _118  and  _120
REMARK   53  A    between atoms: _120  and  _121
REMARK   54  A    between atoms: _124  and  _126
REMARK   55  A    between atoms: _126  and  _127
REMARK   56  A    between atoms: _126  and  _129
REMARK   57  A    between atoms: _129  and  _130
REMARK   58  A    between atoms: _133  and  _135
REMARK   59  A    between atoms: _135  and  _136
REMARK   60  A    between atoms: _135  and  _138
REMARK   61  A    between atoms: _138  and  _139
REMARK   62  A    between atoms: _139  and  _140
REMARK   63  A    between atoms: _140  and  _141
REMARK   64  A    between atoms: _150  and  _152
REMARK   65  A    between atoms: _152  and  _153
REMARK   66  A    between atoms: _152  and  _155
REMARK   67  A    between atoms: _155  and  _156
REMARK   68  A    between atoms: _156  and  _157
REMARK   69  A    between atoms: _157  and  _158
REMARK   70  A    between atoms: _158  and  _159
REMARK   71  A    between atoms: _163  and  _165
REMARK   72  A    between atoms: _165  and  _166
REMARK   73  A    between atoms: _165  and  _168
REMARK   74  A    between atoms: _171  and  _173
REMARK   75  A    between atoms: _173  and  _174
REMARK   76  A    between atoms: _177  and  _179
REMARK   77  A    between atoms: _179  and  _180
REMARK   78  A    between atoms: _182  and  _184
REMARK   79  A    between atoms: _184  and  _185
REMARK   80  A    between atoms: _184  and  _187
REMARK   81  A    between atoms: _187  and  _188
REMARK   82  A    between atoms: _188  and  _189
REMARK   83  A    between atoms: _191  and  _193
REMARK   84  A    between atoms: _193  and  _194
REMARK   85  A    between atoms: _197  and  _199
REMARK   86  A    between atoms: _199  and  _200
REMARK   87  A    between atoms: _199  and  _202
REMARK   88  A    between atoms: _202  and  _203
REMARK   89  A    between atoms: _203  and  _204
REMARK   90  A    between atoms: _204  and  _205
REMARK   91  A    between atoms: _205  and  _206
REMARK   92  A    between atoms: _211  and  _212
REMARK   93  A    between atoms: _217  and  _219
REMARK   94  A    between atoms: _219  and  _220
REMARK   95  A    between atoms: _219  and  _222
REMARK   96  A    between atoms: _222  and  _223
REMARK   97  A    between atoms: _228  and  _230
REMARK   98  A    between atoms: _230  and  _231
REMARK   99  A    between atoms: _230  and  _233
REMARK  100  A    between atoms: _233  and  _234
REMARK  101  A    between atoms: _234  and  _235
REMARK  102  A    between atoms: _237  and  _239
REMARK  103  A    between atoms: _239  and  _240
REMARK  104  A    between atoms: _239  and  _242
REMARK  105  A    between atoms: _242  and  _243
REMARK  106  A    between atoms: _246  and  _248
REMARK  107  A    between atoms: _248  and  _249
REMARK  108  A    between atoms: _248  and  _251
REMARK  109  A    between atoms: _251  and  _252
REMARK  110  A    between atoms: _252  and  _253
REMARK  111  A    between atoms: _253  and  _254
REMARK  112  A    between atoms: _263  and  _265
REMARK  113  A    between atoms: _265  and  _266
REMARK  114  A    between atoms: _265  and  _268
REMARK  115  A    between atoms: _268  and  _269
REMARK  116  A    between atoms: _271  and  _273
REMARK  117  A    between atoms: _273  and  _274
REMARK  118  A    between atoms: _273  and  _276
REMARK  119  A    between atoms: _276  and  _277
REMARK  120  A    between atoms: _277  and  _278
REMARK  121  A    between atoms: _281  and  _283
REMARK  122  A    between atoms: _283  and  _284
REMARK  123  A    between atoms: _283  and  _286
REMARK  124  A    between atoms: _286  and  _287
REMARK  125  A    between atoms: _289  and  _291
REMARK  126  A    between atoms: _291  and  _292
REMARK  127  A    between atoms: _291  and  _294
REMARK  128  A    between atoms: _294  and  _295
REMARK  129  A    between atoms: _298  and  _300
REMARK  130  A    between atoms: _300  and  _301
REMARK  131  A    between atoms: _300  and  _303
REMARK  132  A    between atoms: _303  and  _304
REMARK  133  A    between atoms: _310  and  _312
REMARK  134  A    between atoms: _312  and  _313
REMARK  135  A    between atoms: _312  and  _315
REMARK  136  A    between atoms: _315  and  _316
REMARK  137  A    between atoms: _316  and  _317
REMARK  138  A    between atoms: _317  and  _318
REMARK  139  A    between atoms: _318  and  _319
REMARK  140  A    between atoms: _323  and  _325
REMARK  141  A    between atoms: _325  and  _326
REMARK  142  A    between atoms: _325  and  _328
REMARK  143  A    between atoms: _328  and  _329
REMARK  144  A    between atoms: _334  and  _336
REMARK  145  A    between atoms: _336  and  _337
REMARK  146  A    between atoms: _336  and  _339
REMARK  147  A    between atoms: _339  and  _340
REMARK  148  A    between atoms: _343  and  _345
REMARK  149  A    between atoms: _345  and  _346
REMARK  150  A    between atoms: _345  and  _348
REMARK  151  A    between atoms: _348  and  _349
REMARK  152  A    between atoms: _352  and  _354
REMARK  153  A    between atoms: _354  and  _355
REMARK  154  A    between atoms: _358  and  _360
REMARK  155  A    between atoms: _360  and  _361
REMARK  156  A    between atoms: _360  and  _363
REMARK  157  A    between atoms: _363  and  _364
REMARK  158  A    between atoms: _367  and  _369
REMARK  159  A    between atoms: _369  and  _370
REMARK  160  A    between atoms: _369  and  _372
REMARK  161  A    between atoms: _372  and  _373
REMARK  162  A    between atoms: _376  and  _378
REMARK  163  A    between atoms: _378  and  _379
REMARK  164  A    between atoms: _378  and  _381
REMARK  165  A    between atoms: _381  and  _382
REMARK  166  A    between atoms: _382  and  _383
REMARK  167  A    between atoms: _383  and  _384
REMARK  168  A    between atoms: _393  and  _395
REMARK  169  A    between atoms: _395  and  _396
REMARK  170  A    between atoms: _395  and  _398
REMARK  171  A    between atoms: _398  and  _399
REMARK  172  A    between atoms: _399  and  _400
REMARK  173  A    between atoms: _405  and  _407
REMARK  174  A    between atoms: _407  and  _408
REMARK  175  A    between atoms: _407  and  _410
REMARK  176  A    between atoms: _410  and  _411
REMARK  177  A    between atoms: _411  and  _412
REMARK  178  A    between atoms: _417  and  _419
REMARK  179  A    between atoms: _419  and  _420
REMARK  180  A    between atoms: _419  and  _422
REMARK  181  A    between atoms: _422  and  _423
REMARK  182  A    between atoms: _433  and  _435
REMARK  183  A    between atoms: _435  and  _436
REMARK  184  A    between atoms: _435  and  _438
REMARK  185  A    between atoms: _438  and  _439
REMARK  186  A    between atoms: _442  and  _444
REMARK  187  A    between atoms: _444  and  _445
REMARK  188  A    between atoms: _444  and  _447
REMARK  189  A    between atoms: _447  and  _448
REMARK  190  A    between atoms: _451  and  _453
REMARK  191  A    between atoms: _453  and  _454
REMARK  192  A    between atoms: _453  and  _456
REMARK  193  A    between atoms: _456  and  _457
REMARK  194  A    between atoms: _457  and  _458
REMARK  195  A    between atoms: _458  and  _459
REMARK  196  A    between atoms: _459  and  _460
REMARK  197  A    between atoms: _464  and  _466
REMARK  198  A    between atoms: _466  and  _467
REMARK  199  A    between atoms: _466  and  _469
REMARK  200  A    between atoms: _469  and  _470
REMARK  201  A    between atoms: _470  and  _471
REMARK  202  A    between atoms: _471  and  _472
REMARK  203  A    between atoms: _481  and  _483
REMARK  204  A    between atoms: _483  and  _484
REMARK  205  A    between atoms: _483  and  _486
REMARK  206  A    between atoms: _486  and  _487
REMARK  207  A    between atoms: _490  and  _492
REMARK  208  A    between atoms: _492  and  _493
REMARK  209  A    between atoms: _492  and  _495
REMARK  210  A    between atoms: _498  and  _500
REMARK  211  A    between atoms: _500  and  _501
REMARK  212  A    between atoms: _500  and  _503
REMARK  213  A    between atoms: _503  and  _504
REMARK  214  A    between atoms: _504  and  _505
REMARK  215  A    between atoms: _508  and  _510
REMARK  216  A    between atoms: _510  and  _511
REMARK  217  A    between atoms: _510  and  _513
REMARK  218  A    between atoms: _515  and  _517
REMARK  219  A    between atoms: _517  and  _518
REMARK  220  A    between atoms: _517  and  _520
REMARK  221  A    between atoms: _520  and  _521
REMARK  222  A    between atoms: _521  and  _522
REMARK  223  A    between atoms: _524  and  _526
REMARK  224  A    between atoms: _526  and  _527
REMARK  225  A    between atoms: _526  and  _529
REMARK  226  A    between atoms: _529  and  _530
REMARK  227  A    between atoms: _532  and  _534
REMARK  228  A    between atoms: _534  and  _535
REMARK  229  A    between atoms: _534  and  _537
REMARK  230  A    between atoms: _537  and  _538
REMARK  231  A    between atoms: _541  and  _543
REMARK  232  A    between atoms: _543  and  _544
REMARK  233  A    between atoms: _543  and  _546
REMARK  234  A    between atoms: _546  and  _547
REMARK  235  A    between atoms: _547  and  _548
REMARK  236  A    between atoms: _548  and  _549
REMARK  237  A    between atoms: _558  and  _560
REMARK  238  A    between atoms: _560  and  _561
REMARK  239  A    between atoms: _560  and  _563
REMARK  240  A    between atoms: _566  and  _568
REMARK  241  A    between atoms: _568  and  _569
REMARK  242  A    between atoms: _568  and  _571
REMARK  243  A    between atoms: _571  and  _572
REMARK  244  A    between atoms: _577  and  _578
REMARK                            x       y       z     vdW  Elec       q    Type
REMARK                         _______ _______ _______ _____ _____    ______ ____
ROOT
ATOM      1  CB  GLN A   1       9.224   8.964  -2.527  0.00  0.00    +0.035 C 
ENDROOT
BRANCH   1   2
ATOM      2  CA  GLN A   1       9.718   7.720  -1.787  0.00  0.00    +0.134 C 
BRANCH   2   3
ATOM      3  N   GLN A   1       9.751   7.997  -0.351  0.00  0.00    -0.239 NA
ATOM      4  H   GLN A   1      10.205   8.870  -0.014  0.00  0.00    +0.142 HD
ENDBRANCH   2   3
BRANCH   2   5
ATOM      5  C   GLN A   1      11.114   7.355  -2.286  0.00  0.00    +0.224 C 
ATOM      6  O   GLN A   1      12.067   8.099  -2.056  0.00  0.00    -0.287 OA
ENDBRANCH   2   5
ENDBRANCH   1   2
BRANCH   1   7
ATOM      7  CG  GLN A   1       9.291   8.870  -4.041  0.00  0.00    +0.087 C 
BRANCH   7   8
ATOM      8  CD  GLN A   1       8.697  10.085  -4.718  0.00  0.00    +0.219 C 
ATOM      9  OE1 GLN A   1       8.487  11.122  -4.087  0.00  0.00    -0.275 OA
ATOM     10  NE2 GLN A   1       8.413   9.960  -6.010  0.00  0.00    -0.329 N 
ATOM     11 HE21 GLN A   1       8.608   9.064  -6.501  0.00  0.00    +0.145 HD
ATOM     12 HE22 GLN A   1       7.996  10.758  -6.530  0.00  0.00    +0.145 HD
ENDBRANCH   7   8
ENDBRANCH   1   7
TORSDOF 5
REMARK  Name = ../refined-set-2016/3hk1/3hk1_pocket.pdb
REMARK  244 active torsions:
REMARK  status: ('A' for Active; 'I' for Inactive)
REMARK    1  A    between atoms: _1  and  _3
REMARK    2  A    between atoms: _3  and  _4
REMARK    3  A    between atoms: _3  and  _6
REMARK    4  A    between atoms: _6  and  _7
REMARK    5  A    between atoms: _10  and  _12
REMARK    6  A    between atoms: _12  and  _13
REMARK    7  A    between atoms: _12  and  _15
REMARK    8  A    between atoms: _18  and  _20
REMARK    9  A    between atoms: _20  and  _21
REMARK   10  A    between atoms: _20  and  _23
REMARK   11  A    between atoms: _23  and  _24
REMARK   12  A    between atoms: _26  and  _28
REMARK   13  A    between atoms: _28  and  _29
REMARK   14  A    between atoms: _28  and  _31
REMARK   15  A    between atoms: _31  and  _32
REMARK   16  A    between atoms: _34  and  _36
REMARK   17  A    between atoms: _36  and  _37
REMARK   18  A    between atoms: _36  and  _39
REMARK   19  A    between atoms: _39  and  _40
REMARK   20  A    between atoms: _46  and  _48
REMARK   21  A    between atoms: _48  and  _49
REMARK   22  A    between atoms: _48  and  _51
REMARK   23  A    between atoms: _51  and  _52
REMARK   24  A    between atoms: _57  and  _58
REMARK   25  A    between atoms: _60  and  _62
REMARK   26  A    between atoms: _62  and  _63
REMARK   27  A    between atoms: _62  and  _65
REMARK   28  A    between atoms: _65  and  _66
REMARK   29  A    between atoms: _66  and  _67
REMARK   30  A    between atoms: _69  and  _71
REMARK   31  A    between atoms: _71  and  _72
REMARK   32  A    between atoms: _71  and  _74
REMARK   33  A    between atoms: _74  and  _75
REMARK   34  A    between atoms: _75  and  _76
REMARK   35  A    between atoms: _76  and  _77
REMARK   36  A    between atoms: _77  and  _78
REMARK   37  A    between atoms: _82  and  _84
REMARK   38  A    between atoms: _84  and  _85
REMARK   39  A    between atoms: _84  and  _87
REMARK   40  A    between atoms: _87  and  _88
REMARK   41  A    between atoms: _88  and  _89
REMARK   42  A    between atoms: _92  and  _94
REMARK   43  A    between atoms: _94  and  _95
REMARK   44  A    between atoms: _94  and  _97
REMARK   45  A    between atoms: _100  and  _102
REMARK   46  A    between atoms: _102  and  _103
REMARK   47  A    between atoms: _105  and  _107
REMARK   48  A    between atoms: _107  and  _108
REMARK   49  A    between atoms: _107  and  _110
REMARK   50  A    between atoms: _113  and  _115
REMARK   51  A    between atoms: _115  and  _116
REMARK   52  A    between atoms: _118  and  _120
REMARK   53  A    between atoms: _120  and  _121
REMARK   54  A    between atoms: _124  and  _126
REMARK   55  A    between atoms: _126  and  _127
REMARK   56  A    between atoms: _126  and  _129
REMARK   57  A    between atoms: _129  and  _130
REMARK   58  A    between atoms: _133  and  _135
REMARK   59  A    between atoms: _135  and  _136
REMARK   60  A    between atoms: _135  and  _138
REMARK   61  A    between atoms: _138  and  _139
REMARK   62  A    between atoms: _139  and  _140
REMARK   63  A    between atoms: _140  and  _141
REMARK   64  A    between atoms: _150  and  _152
REMARK   65  A    between atoms: _152  and  _153
REMARK   66  A    between atoms: _152  and  _155
REMARK   67  A    between atoms: _155  and  _156
REMARK   68  A    between atoms: _156  and  _157
REMARK   69  A    between atoms: _157  and  _158
REMARK   70  A    between atoms: _158  and  _159
REMARK   71  A    between atoms: _163  and  _165
REMARK   72  A    between atoms: _165  and  _166
REMARK   73  A    between atoms: _165  and  _168
REMARK   74  A    between atoms: _171  and  _173
REMARK   75  A    between atoms: _173  and  _174
REMARK   76  A    between atoms: _177  and  _179
REMARK   77  A    between atoms: _179  and  _180
REMARK   78  A    between atoms: _182  and  _184
REMARK   79  A    between atoms: _184  and  _185
REMARK   80  A    between atoms: _184  and  _187
REMARK   81  A    between atoms: _187  and  _188
REMARK   82  A    between atoms: _188  and  _189
REMARK   83  A    between atoms: _191  and  _193
REMARK   84  A    between atoms: _193  and  _194
REMARK   85  A    between atoms: _197  and  _199
REMARK   86  A    between atoms: _199  and  _200
REMARK   87  A    between atoms: _199  and  _202
REMARK   88  A    between atoms: _202  and  _203
REMARK   89  A    between atoms: _203  and  _204
REMARK   90  A    between atoms: _204  and  _205
REMARK   91  A    between atoms: _205  and  _206
REMARK   92  A    between atoms: _211  and  _212
REMARK   93  A    between atoms: _217  and  _219
REMARK   94  A    between atoms: _219  and  _220
REMARK   95  A    between atoms: _219  and  _222
REMARK   96  A    between atoms: _222  and  _223
REMARK   97  A    between atoms: _228  and  _230
REMARK   98  A    between atoms: _230  and  _231
REMARK   99  A    between atoms: _230  and  _233
REMARK  100  A    between atoms: _233  and  _234
REMARK  101  A    between atoms: _234  and  _235
REMARK  102  A    between atoms: _237  and  _239
REMARK  103  A    between atoms: _239  and  _240
REMARK  104  A    between atoms: _239  and  _242
REMARK  105  A    between atoms: _242  and  _243
REMARK  106  A    between atoms: _246  and  _248
REMARK  107  A    between atoms: _248  and  _249
REMARK  108  A    between atoms: _248  and  _251
REMARK  109  A    between atoms: _251  and  _252
REMARK  110  A    between atoms: _252  and  _253
REMARK  111  A    between atoms: _253  and  _254
REMARK  112  A    between atoms: _263  and  _265
REMARK  113  A    between atoms: _265  and  _266
REMARK  114  A    between atoms: _265  and  _268
REMARK  115  A    between atoms: _268  and  _269
REMARK  116  A    between atoms: _271  and  _273
REMARK  117  A    between atoms: _273  and  _274
REMARK  118  A    between atoms: _273  and  _276
REMARK  119  A    between atoms: _276  and  _277
REMARK  120  A    between atoms: _277  and  _278
REMARK  121  A    between atoms: _281  and  _283
REMARK  122  A    between atoms: _283  and  _284
REMARK  123  A    between atoms: _283  and  _286
REMARK  124  A    between atoms: _286  and  _287
REMARK  125  A    between atoms: _289  and  _291
REMARK  126  A    between atoms: _291  and  _292
REMARK  127  A    between atoms: _291  and  _294
REMARK  128  A    between atoms: _294  and  _295
REMARK  129  A    between atoms: _298  and  _300
REMARK  130  A    between atoms: _300  and  _301
REMARK  131  A    between atoms: _300  and  _303
REMARK  132  A    between atoms: _303  and  _304
REMARK  133  A    between atoms: _310  and  _312
REMARK  134  A    between atoms: _312  and  _313
REMARK  135  A    between atoms: _312  and  _315
REMARK  136  A    between atoms: _315  and  _316
REMARK  137  A    between atoms: _316  and  _317
REMARK  138  A    between atoms: _317  and  _318
REMARK  139  A    between atoms: _318  and  _319
REMARK  140  A    between atoms: _323  and  _325
REMARK  141  A    between atoms: _325  and  _326
REMARK  142  A    between atoms: _325  and  _328
REMARK  143  A    between atoms: _328  and  _329
REMARK  144  A    between atoms: _334  and  _336
REMARK  145  A    between atoms: _336  and  _337
REMARK  146  A    between atoms: _336  and  _339
REMARK  147  A    between atoms: _339  and  _340
REMARK  148  A    between atoms: _343  and  _345
REMARK  149  A    between atoms: _345  and  _346
REMARK  150  A    between atoms: _345  and  _348
REMARK  151  A    between atoms: _348  and  _349
REMARK  152  A    between atoms: _352  and  _354
REMARK  153  A    between atoms: _354  and  _355
REMARK  154  A    between atoms: _358  and  _360
REMARK  155  A    between atoms: _360  and  _361
REMARK  156  A    between atoms: _360  and  _363
REMARK  157  A    between atoms: _363  and  _364
REMARK  158  A    between atoms: _367  and  _369
REMARK  159  A    between atoms: _369  and  _370
REMARK  160  A    between atoms: _369  and  _372
REMARK  161  A    between atoms: _372  and  _373
REMARK  162  A    between atoms: _376  and  _378
REMARK  163  A    between atoms: _378  and  _379
REMARK  164  A    between atoms: _378  and  _381
REMARK  165  A    between atoms: _381  and  _382
REMARK  166  A    between atoms: _382  and  _383
REMARK  167  A    between atoms: _383  and  _384
REMARK  168  A    between atoms: _393  and  _395
REMARK  169  A    between atoms: _395  and  _396
REMARK  170  A    between atoms: _395  and  _398
REMARK  171  A    between atoms: _398  and  _399
REMARK  172  A    between atoms: _399  and  _400
REMARK  173  A    between atoms: _405  and  _407
REMARK  174  A    between atoms: _407  and  _408
REMARK  175  A    between atoms: _407  and  _410
REMARK  176  A    between atoms: _410  and  _411
REMARK  177  A    between atoms: _411  and  _412
REMARK  178  A    between atoms: _417  and  _419
REMARK  179  A    between atoms: _419  and  _420
REMARK  180  A    between atoms: _419  and  _422
REMARK  181  A    between atoms: _422  and  _423
REMARK  182  A    between atoms: _433  and  _435
REMARK  183  A    between atoms: _435  and  _436
REMARK  184  A    between atoms: _435  and  _438
REMARK  185  A    between atoms: _438  and  _439
REMARK  186  A    between atoms: _442  and  _444
REMARK  187  A    between atoms: _444  and  _445
REMARK  188  A    between atoms: _444  and  _447
REMARK  189  A    between atoms: _447  and  _448
REMARK  190  A    between atoms: _451  and  _453
REMARK  191  A    between atoms: _453  and  _454
REMARK  192  A    between atoms: _453  and  _456
REMARK  193  A    between atoms: _456  and  _457
REMARK  194  A    between atoms: _457  and  _458
REMARK  195  A    between atoms: _458  and  _459
REMARK  196  A    between atoms: _459  and  _460
REMARK  197  A    between atoms: _464  and  _466
REMARK  198  A    between atoms: _466  and  _467
REMARK  199  A    between atoms: _466  and  _469
REMARK  200  A    between atoms: _469  and  _470
REMARK  201  A    between atoms: _470  and  _471
REMARK  202  A    between atoms: _471  and  _472
REMARK  203  A    between atoms: _481  and  _483
REMARK  204  A    between atoms: _483  and  _484
REMARK  205  A    between atoms: _483  and  _486
REMARK  206  A    between atoms: _486  and  _487
REMARK  207  A    between atoms: _490  and  _492
REMARK  208  A    between atoms: _492  and  _493
REMARK  209  A    between atoms: _492  and  _495
REMARK  210  A    between atoms: _498  and  _500
REMARK  211  A    between atoms: _500  and  _501
REMARK  212  A    between atoms: _500  and  _503
REMARK  213  A    between atoms: _503  and  _504
REMARK  214  A    between atoms: _504  and  _505
REMARK  215  A    between atoms: _508  and  _510
REMARK  216  A    between atoms: _510  and  _511
REMARK  217  A    between atoms: _510  and  _513
REMARK  218  A    between atoms: _515  and  _517
REMARK  219  A    between atoms: _517  and  _518
REMARK  220  A    between atoms: _517  and  _520
REMARK  221  A    between atoms: _520  and  _521
REMARK  222  A    between atoms: _521  and  _522
REMARK  223  A    between atoms: _524  and  _526
REMARK  224  A    between atoms: _526  and  _527
REMARK  225  A    between atoms: _526  and  _529
REMARK  226  A    between atoms: _529  and  _530
REMARK  227  A    between atoms: _532  and  _534
REMARK  228  A    between atoms: _534  and  _535
REMARK  229  A    between atoms: _534  and  _537
REMARK  230  A    between atoms: _537  and  _538
REMARK  231  A    between atoms: _541  and  _543
REMARK  232  A    between atoms: _543  and  _544
REMARK  233  A    between atoms: _543  and  _546
REMARK  234  A    between atoms: _546  and  _547
REMARK  235  A    between atoms: _547  and  _548
REMARK  236  A    between atoms: _548  and  _549
REMARK  237  A    between atoms: _558  and  _560
REMARK  238  A    between atoms: _560  and  _561
REMARK  239  A    between atoms: _560  and  _563
REMARK  240  A    between atoms: _566  and  _568
REMARK  241  A    between atoms: _568  and  _569
REMARK  242  A    between atoms: _568  and  _571
REMARK  243  A    between atoms: _571  and  _572
REMARK  244  A    between atoms: _577  and  _578
REMARK                            x       y       z     vdW  Elec       q    Type
REMARK                         _______ _______ _______ _____ _____    ______ ____
ROOT
ATOM      1  CB  GLN A   1      13.138   8.235  -7.795  0.00  0.00    +0.035 C 
ENDROOT
BRANCH   1   2
ATOM      2  CA  GLN A   1      13.058   6.780  -7.329  0.00  0.00    +0.134 C 
BRANCH   2   3
ATOM      3  N   GLN A   1      13.108   6.676  -5.863  0.00  0.00    -0.239 NA
ATOM      4  H   GLN A   1      13.833   7.214  -5.347  0.00  0.00    +0.142 HD
ENDBRANCH   2   3
BRANCH   2   5
ATOM      5  C   GLN A   1      14.247   6.038  -7.901  0.00  0.00    +0.224 C 
ATOM      6  O   GLN A   1      15.379   6.276  -7.480  0.00  0.00    -0.287 OA
ENDBRANCH   2   5
ENDBRANCH   1   2
BRANCH   1   7
ATOM      7  CG  GLN A   1      12.021   9.146  -7.277  0.00  0.00    +0.087 C 
BRANCH   7   8
ATOM      8  CD  GLN A   1      12.191  10.584  -7.740  0.00  0.00    +0.219 C 
ATOM      9  OE1 GLN A   1      13.308  11.057  -7.917  0.00  0.00    -0.275 OA
ATOM     10  NE2 GLN A   1      11.079  11.286  -7.927  0.00  0.00    -0.329 N 
ATOM     11 HE21 GLN A   1      10.152  10.844  -7.765  0.00  0.00    +0.145 HD
ATOM     12 HE22 GLN A   1      11.136  12.278  -8.236  0.00  0.00    +0.145 HD
ENDBRANCH   7   8
ENDBRANCH   1   7
TORSDOF 5
REMARK  Name = ../refined-set-2016/3hk1/3hk1_pocket.pdb
REMARK  244 active torsions:
REMARK  status: ('A' for Active; 'I' for Inactive)
REMARK    1  A    between atoms: _1  and  _3
REMARK    2  A    between atoms: _3  and  _4
REMARK    3  A    between atoms: _3  and  _6
REMARK    4  A    between atoms: _6  and  _7
REMARK    5  A    between atoms: _10  and  _12
REMARK    6  A    between atoms: _12  and  _13
REMARK    7  A    between atoms: _12  and  _15
REMARK    8  A    between atoms: _18  and  _20
REMARK    9  A    between atoms: _20  and  _21
REMARK   10  A    between atoms: _20  and  _23
REMARK   11  A    between atoms: _23  and  _24
REMARK   12  A    between atoms: _26  and  _28
REMARK   13  A    between atoms: _28  and  _29
REMARK   14  A    between atoms: _28  and  _31
REMARK   15  A    between atoms: _31  and  _32
REMARK   16  A    between atoms: _34  and  _36
REMARK   17  A    between atoms: _36  and  _37
REMARK   18  A    between atoms: _36  and  _39
REMARK   19  A    between atoms: _39  and  _40
REMARK   20  A    between atoms: _46  and  _48
REMARK   21  A    between atoms: _48  and  _49
REMARK   22  A    between atoms: _48  and  _51
REMARK   23  A    between atoms: _51  and  _52
REMARK   24  A    between atoms: _57  and  _58
REMARK   25  A    between atoms: _60  and  _62
REMARK   26  A    between atoms: _62  and  _63
REMARK   27  A    between atoms: _62  and  _65
REMARK   28  A    between atoms: _65  and  _66
REMARK   29  A    between atoms: _66  and  _67
REMARK   30  A    between atoms: _69  and  _71
REMARK   31  A    between atoms: _71  and  _72
REMARK   32  A    between atoms: _71  and  _74
REMARK   33  A    between atoms: _74  and  _75
REMARK   34  A    between atoms: _75  and  _76
REMARK   35  A    between atoms: _76  and  _77
REMARK   36  A    between atoms: _77  and  _78
REMARK   37  A    between atoms: _82  and  _84
REMARK   38  A    between atoms: _84  and  _85
REMARK   39  A    between atoms: _84  and  _87
REMARK   40  A    between atoms: _87  and  _88
REMARK   41  A    between atoms: _88  and  _89
REMARK   42  A    between atoms: _92  and  _94
REMARK   43  A    between atoms: _94  and  _95
REMARK   44  A    between atoms: _94  and  _97
REMARK   45  A    between atoms: _100  and  _102
REMARK   46  A    between atoms: _102  and  _103
REMARK   47  A    between atoms: _105  and  _107
REMARK   48  A    between atoms: _107  and  _108
REMARK   49  A    between atoms: _107  and  _110
REMARK   50  A    between atoms: _113  and  _115
REMARK   51  A    between atoms: _115  and  _116
REMARK   52  A    between atoms: _118  and  _120
REMARK   53  A    between atoms: _120  and  _121
REMARK   54  A    between atoms: _124  and  _126
REMARK   55  A    between atoms: _126  and  _127
REMARK   56  A    between atoms: _126  and  _129
REMARK   57  A    between atoms: _129  and  _130
REMARK   58  A    between atoms: _133  and  _135
REMARK   59  A    between atoms: _135  and  _136
REMARK   60  A    between atoms: _135  and  _138
REMARK   61  A    between atoms: _138  and  _139
REMARK   62  A    between atoms: _139  and  _140
REMARK   63  A    between atoms: _140  and  _141
REMARK   64  A    between atoms: _150  and  _152
REMARK   65  A    between atoms: _152  and  _153
REMARK   66  A    between atoms: _152  and  _155
REMARK   67  A    between atoms: _155  and  _156
REMARK   68  A    between atoms: _156  and  _157
REMARK   69  A    between atoms: _157  and  _158
REMARK   70  A    between atoms: _158  and  _159
REMARK   71  A    between atoms: _163  and  _165
REMARK   72  A    between atoms: _165  and  _166
REMARK   73  A    between atoms: _165  and  _168
REMARK   74  A    between atoms: _171  and  _173
REMARK   75  A    between atoms: _173  and  _174
REMARK   76  A    between atoms: _177  and  _179
REMARK   77  A    between atoms: _179  and  _180
REMARK   78  A    between atoms: _182  and  _184
REMARK   79  A    between atoms: _184  and  _185
REMARK   80  A    between atoms: _184  and  _187
REMARK   81  A    between atoms: _187  and  _188
REMARK   82  A    between atoms: _188  and  _189
REMARK   83  A    between atoms: _191  and  _193
REMARK   84  A    between atoms: _193  and  _194
REMARK   85  A    between atoms: _197  and  _199
REMARK   86  A    between atoms: _199  and  _200
REMARK   87  A    between atoms: _199  and  _202
REMARK   88  A    between atoms: _202  and  _203
REMARK   89  A    between atoms: _203  and  _204
REMARK   90  A    between atoms: _204  and  _205
REMARK   91  A    between atoms: _205  and  _206
REMARK   92  A    between atoms: _211  and  _212
REMARK   93  A    between atoms: _217  and  _219
REMARK   94  A    between atoms: _219  and  _220
REMARK   95  A    between atoms: _219  and  _222
REMARK   96  A    between atoms: _222  and  _223
REMARK   97  A    between atoms: _228  and  _230
REMARK   98  A    between atoms: _230  and  _231
REMARK   99  A    between atoms: _230  and  _233
REMARK  100  A    between atoms: _233  and  _234
REMARK  101  A    between atoms: _234  and  _235
REMARK  102  A    between atoms: _237  and  _239
REMARK  103  A    between atoms: _239  and  _240
REMARK  104  A    between atoms: _239  and  _242
REMARK  105  A    between atoms: _242  and  _243
REMARK  106  A    between atoms: _246  and  _248
REMARK  107  A    between atoms: _248  and  _249
REMARK  108  A    between atoms: _248  and  _251
REMARK  109  A    between atoms: _251  and  _252
REMARK  110  A    between atoms: _252  and  _253
REMARK  111  A    between atoms: _253  and  _254
REMARK  112  A    between atoms: _263  and  _265
REMARK  113  A    between atoms: _265  and  _266
REMARK  114  A    between atoms: _265  and  _268
REMARK  115  A    between atoms: _268  and  _269
REMARK  116  A    between atoms: _271  and  _273
REMARK  117  A    between atoms: _273  and  _274
REMARK  118  A    between atoms: _273  and  _276
REMARK  119  A    between atoms: _276  and  _277
REMARK  120  A    between atoms: _277  and  _278
REMARK  121  A    between atoms: _281  and  _283
REMARK  122  A    between atoms: _283  and  _284
REMARK  123  A    between atoms: _283  and  _286
REMARK  124  A    between atoms: _286  and  _287
REMARK  125  A    between atoms: _289  and  _291
REMARK  126  A    between atoms: _291  and  _292
REMARK  127  A    between atoms: _291  and  _294
REMARK  128  A    between atoms: _294  and  _295
REMARK  129  A    between atoms: _298  and  _300
REMARK  130  A    between atoms: _300  and  _301
REMARK  131  A    between atoms: _300  and  _303
REMARK  132  A    between atoms: _303  and  _304
REMARK  133  A    between atoms: _310  and  _312
REMARK  134  A    between atoms: _312  and  _313
REMARK  135  A    between atoms: _312  and  _315
REMARK  136  A    between atoms: _315  and  _316
REMARK  137  A    between atoms: _316  and  _317
REMARK  138  A    between atoms: _317  and  _318
REMARK  139  A    between atoms: _318  and  _319
REMARK  140  A    between atoms: _323  and  _325
REMARK  141  A    between atoms: _325  and  _326
REMARK  142  A    between atoms: _325  and  _328
REMARK  143  A    between atoms: _328  and  _329
REMARK  144  A    between atoms: _334  and  _336
REMARK  145  A    between atoms: _336  and  _337
REMARK  146  A    between atoms: _336  and  _339
REMARK  147  A    between atoms: _339  and  _340
REMARK  148  A    between atoms: _343  and  _345
REMARK  149  A    between atoms: _345  and  _346
REMARK  150  A    between atoms: _345  and  _348
REMARK  151  A    between atoms: _348  and  _349
REMARK  152  A    between atoms: _352  and  _354
REMARK  153  A    between atoms: _354  and  _355
REMARK  154  A    between atoms: _358  and  _360
REMARK  155  A    between atoms: _360  and  _361
REMARK  156  A    between atoms: _360  and  _363
REMARK  157  A    between atoms: _363  and  _364
REMARK  158  A    between atoms: _367  and  _369
REMARK  159  A    between atoms: _369  and  _370
REMARK  160  A    between atoms: _369  and  _372
REMARK  161  A    between atoms: _372  and  _373
REMARK  162  A    between atoms: _376  and  _378
REMARK  163  A    between atoms: _378  and  _379
REMARK  164  A    between atoms: _378  and  _381
REMARK  165  A    between atoms: _381  and  _382
REMARK  166  A    between atoms: _382  and  _383
REMARK  167  A    between atoms: _383  and  _384
REMARK  168  A    between atoms: _393  and  _395
REMARK  169  A    between atoms: _395  and  _396
REMARK  170  A    between atoms: _395  and  _398
REMARK  171  A    between atoms: _398  and  _399
REMARK  172  A    between atoms: _399  and  _400
REMARK  173  A    between atoms: _405  and  _407
REMARK  174  A    between atoms: _407  and  _408
REMARK  175  A    between atoms: _407  and  _410
REMARK  176  A    between atoms: _410  and  _411
REMARK  177  A    between atoms: _411  and  _412
REMARK  178  A    between atoms: _417  and  _419
REMARK  179  A    between atoms: _419  and  _420
REMARK  180  A    between atoms: _419  and  _422
REMARK  181  A    between atoms: _422  and  _423
REMARK  182  A    between atoms: _433  and  _435
REMARK  183  A    between atoms: _435  and  _436
REMARK  184  A    between atoms: _435  and  _438
REMARK  185  A    between atoms: _438  and  _439
REMARK  186  A    between atoms: _442  and  _444
REMARK  187  A    between atoms: _444  and  _445
REMARK  188  A    between atoms: _444  and  _447
REMARK  189  A    between atoms: _447  and  _448
REMARK  190  A    between atoms: _451  and  _453
REMARK  191  A    between atoms: _453  and  _454
REMARK  192  A    between atoms: _453  and  _456
REMARK  193  A    between atoms: _456  and  _457
REMARK  194  A    between atoms: _457  and  _458
REMARK  195  A    between atoms: _458  and  _459
REMARK  196  A    between atoms: _459  and  _460
REMARK  197  A    between atoms: _464  and  _466
REMARK  198  A    between atoms: _466  and  _467
REMARK  199  A    between atoms: _466  and  _469
REMARK  200  A    between atoms: _469  and  _470
REMARK  201  A    between atoms: _470  and  _471
REMARK  202  A    between atoms: _471  and  _472
REMARK  203  A    between atoms: _481  and  _483
REMARK  204  A    between atoms: _483  and  _484
REMARK  205  A    between atoms: _483  and  _486
REMARK  206  A    between atoms: _486  and  _487
REMARK  207  A    between atoms: _490  and  _492
REMARK  208  A    between atoms: _492  and  _493
REMARK  209  A    between atoms: _492  and  _495
REMARK  210  A    between atoms: _498  and  _500
REMARK  211  A    between atoms: _500  and  _501
REMARK  212  A    between atoms: _500  and  _503
REMARK  213  A    between atoms: _503  and  _504
REMARK  214  A    between atoms: _504  and  _505
REMARK  215  A    between atoms: _508  and  _510
REMARK  216  A    between atoms: _510  and  _511
REMARK  217  A    between atoms: _510  and  _513
REMARK  218  A    between atoms: _515  and  _517
REMARK  219  A    between atoms: _517  and  _518
REMARK  220  A    between atoms: _517  and  _520
REMARK  221  A    between atoms: _520  and  _521
REMARK  222  A    between atoms: _521  and  _522
REMARK  223  A    between atoms: _524  and  _526
REMARK  224  A    between atoms: _526  and  _527
REMARK  225  A    between atoms: _526  and  _529
REMARK  226  A    between atoms: _529  and  _530
REMARK  227  A    between atoms: _532  and  _534
REMARK  228  A    between atoms: _534  and  _535
REMARK  229  A    between atoms: _534  and  _537
REMARK  230  A    between atoms: _537  and  _538
REMARK  231  A    between atoms: _541  and  _543
REMARK  232  A    between atoms: _543  and  _544
REMARK  233  A    between atoms: _543  and  _546
REMARK  234  A    between atoms: _546  and  _547
REMARK  235  A    between atoms: _547  and  _548
REMARK  236  A    between atoms: _548  and  _549
REMARK  237  A    between atoms: _558  and  _560
REMARK  238  A    between atoms: _560  and  _561
REMARK  239  A    between atoms: _560  and  _563
REMARK  240  A    between atoms: _566  and  _568
REMARK  241  A    between atoms: _568  and  _569
REMARK  242  A    between atoms: _568  and  _571
REMARK  243  A    between atoms: _571  and  _572
REMARK  244  A    between atoms: _577  and  _578
REMARK                            x       y       z     vdW  Elec       q    Type
REMARK                         _______ _______ _______ _____ _____    ______ ____
ROOT
ATOM      1  CG  TRP A   1      16.897   7.565 -13.112  0.00  0.00    -0.002 A 
ATOM      2  CD2 TRP A   1      17.279   8.084 -11.830  0.00  0.00    +0.013 A 
ATOM      3  CE3 TRP A   1      16.880   7.816 -10.508  0.00  0.00    +0.001 A 
ATOM      4  CZ3 TRP A   1      17.488   8.535  -9.465  0.00  0.00    +0.000 A 
ATOM      5  CH2 TRP A   1      18.482   9.490  -9.728  0.00  0.00    +0.001 A 
ATOM      6  CZ2 TRP A   1      18.887   9.772 -11.013  0.00  0.00    +0.017 A 
ATOM      7  CE2 TRP A   1      18.280   9.059 -12.056  0.00  0.00    +0.056 A 
ATOM      8  NE1 TRP A   1      18.481   9.138 -13.410  0.00  0.00    -0.352 N 
ATOM      9  HE1 TRP A   1      19.150   9.777 -13.886  0.00  0.00    +0.166 HD
ATOM     10  CD1 TRP A   1      17.654   8.235 -14.035  0.00  0.00    +0.068 A 
ENDROOT
BRANCH   1  11
ATOM     11  CB  TRP A   1      15.882   6.478 -13.390  0.00  0.00    +0.053 C 
BRANCH  11  12
ATOM     12  CA  TRP A   1      16.372   5.069 -13.001  0.00  0.00    +0.137 C 
BRANCH  12  13
ATOM     13  N   TRP A   1      16.234   4.840 -11.561  0.00  0.00    -0.239 NA
ATOM     14  H   TRP A   1      17.083   4.854 -10.961  0.00  0.00    +0.142 HD
ENDBRANCH  12  13
BRANCH  12  15
ATOM     15  C   TRP A   1      17.840   4.877 -13.375  0.00  0.00    +0.224 C 
ATOM     16  O   TRP A   1      18.731   5.259 -12.613  0.00  0.00    -0.287 OA
ENDBRANCH  12  15
ENDBRANCH  11  12
ENDBRANCH   1  11
TORSDOF 4
REMARK  Name = ../refined-set-2016/3hk1/3hk1_pocket.pdb
REMARK  244 active torsions:
REMARK  status: ('A' for Active; 'I' for Inactive)
REMARK    1  A    between atoms: _1  and  _3
REMARK    2  A    between atoms: _3  and  _4
REMARK    3  A    between atoms: _3  and  _6
REMARK    4  A    between atoms: _6  and  _7
REMARK    5  A    between atoms: _10  and  _12
REMARK    6  A    between atoms: _12  and  _13
REMARK    7  A    between atoms: _12  and  _15
REMARK    8  A    between atoms: _18  and  _20
REMARK    9  A    between atoms: _20  and  _21
REMARK   10  A    between atoms: _20  and  _23
REMARK   11  A    between atoms: _23  and  _24
REMARK   12  A    between atoms: _26  and  _28
REMARK   13  A    between atoms: _28  and  _29
REMARK   14  A    between atoms: _28  and  _31
REMARK   15  A    between atoms: _31  and  _32
REMARK   16  A    between atoms: _34  and  _36
REMARK   17  A    between atoms: _36  and  _37
REMARK   18  A    between atoms: _36  and  _39
REMARK   19  A    between atoms: _39  and  _40
REMARK   20  A    between atoms: _46  and  _48
REMARK   21  A    between atoms: _48  and  _49
REMARK   22  A    between atoms: _48  and  _51
REMARK   23  A    between atoms: _51  and  _52
REMARK   24  A    between atoms: _57  and  _58
REMARK   25  A    between atoms: _60  and  _62
REMARK   26  A    between atoms: _62  and  _63
REMARK   27  A    between atoms: _62  and  _65
REMARK   28  A    between atoms: _65  and  _66
REMARK   29  A    between atoms: _66  and  _67
REMARK   30  A    between atoms: _69  and  _71
REMARK   31  A    between atoms: _71  and  _72
REMARK   32  A    between atoms: _71  and  _74
REMARK   33  A    between atoms: _74  and  _75
REMARK   34  A    between atoms: _75  and  _76
REMARK   35  A    between atoms: _76  and  _77
REMARK   36  A    between atoms: _77  and  _78
REMARK   37  A    between atoms: _82  and  _84
REMARK   38  A    between atoms: _84  and  _85
REMARK   39  A    between atoms: _84  and  _87
REMARK   40  A    between atoms: _87  and  _88
REMARK   41  A    between atoms: _88  and  _89
REMARK   42  A    between atoms: _92  and  _94
REMARK   43  A    between atoms: _94  and  _95
REMARK   44  A    between atoms: _94  and  _97
REMARK   45  A    between atoms: _100  and  _102
REMARK   46  A    between atoms: _102  and  _103
REMARK   47  A    between atoms: _105  and  _107
REMARK   48  A    between atoms: _107  and  _108
REMARK   49  A    between atoms: _107  and  _110
REMARK   50  A    between atoms: _113  and  _115
REMARK   51  A    between atoms: _115  and  _116
REMARK   52  A    between atoms: _118  and  _120
REMARK   53  A    between atoms: _120  and  _121
REMARK   54  A    between atoms: _124  and  _126
REMARK   55  A    between atoms: _126  and  _127
REMARK   56  A    between atoms: _126  and  _129
REMARK   57  A    between atoms: _129  and  _130
REMARK   58  A    between atoms: _133  and  _135
REMARK   59  A    between atoms: _135  and  _136
REMARK   60  A    between atoms: _135  and  _138
REMARK   61  A    between atoms: _138  and  _139
REMARK   62  A    between atoms: _139  and  _140
REMARK   63  A    between atoms: _140  and  _141
REMARK   64  A    between atoms: _150  and  _152
REMARK   65  A    between atoms: _152  and  _153
REMARK   66  A    between atoms: _152  and  _155
REMARK   67  A    between atoms: _155  and  _156
REMARK   68  A    between atoms: _156  and  _157
REMARK   69  A    between atoms: _157  and  _158
REMARK   70  A    between atoms: _158  and  _159
REMARK   71  A    between atoms: _163  and  _165
REMARK   72  A    between atoms: _165  and  _166
REMARK   73  A    between atoms: _165  and  _168
REMARK   74  A    between atoms: _171  and  _173
REMARK   75  A    between atoms: _173  and  _174
REMARK   76  A    between atoms: _177  and  _179
REMARK   77  A    between atoms: _179  and  _180
REMARK   78  A    between atoms: _182  and  _184
REMARK   79  A    between atoms: _184  and  _185
REMARK   80  A    between atoms: _184  and  _187
REMARK   81  A    between atoms: _187  and  _188
REMARK   82  A    between atoms: _188  and  _189
REMARK   83  A    between atoms: _191  and  _193
REMARK   84  A    between atoms: _193  and  _194
REMARK   85  A    between atoms: _197  and  _199
REMARK   86  A    between atoms: _199  and  _200
REMARK   87  A    between atoms: _199  and  _202
REMARK   88  A    between atoms: _202  and  _203
REMARK   89  A    between atoms: _203  and  _204
REMARK   90  A    between atoms: _204  and  _205
REMARK   91  A    between atoms: _205  and  _206
REMARK   92  A    between atoms: _211  and  _212
REMARK   93  A    between atoms: _217  and  _219
REMARK   94  A    between atoms: _219  and  _220
REMARK   95  A    between atoms: _219  and  _222
REMARK   96  A    between atoms: _222  and  _223
REMARK   97  A    between atoms: _228  and  _230
REMARK   98  A    between atoms: _230  and  _231
REMARK   99  A    between atoms: _230  and  _233
REMARK  100  A    between atoms: _233  and  _234
REMARK  101  A    between atoms: _234  and  _235
REMARK  102  A    between atoms: _237  and  _239
REMARK  103  A    between atoms: _239  and  _240
REMARK  104  A    between atoms: _239  and  _242
REMARK  105  A    between atoms: _242  and  _243
REMARK  106  A    between atoms: _246  and  _248
REMARK  107  A    between atoms: _248  and  _249
REMARK  108  A    between atoms: _248  and  _251
REMARK  109  A    between atoms: _251  and  _252
REMARK  110  A    between atoms: _252  and  _253
REMARK  111  A    between atoms: _253  and  _254
REMARK  112  A    between atoms: _263  and  _265
REMARK  113  A    between atoms: _265  and  _266
REMARK  114  A    between atoms: _265  and  _268
REMARK  115  A    between atoms: _268  and  _269
REMARK  116  A    between atoms: _271  and  _273
REMARK  117  A    between atoms: _273  and  _274
REMARK  118  A    between atoms: _273  and  _276
REMARK  119  A    between atoms: _276  and  _277
REMARK  120  A    between atoms: _277  and  _278
REMARK  121  A    between atoms: _281  and  _283
REMARK  122  A    between atoms: _283  and  _284
REMARK  123  A    between atoms: _283  and  _286
REMARK  124  A    between atoms: _286  and  _287
REMARK  125  A    between atoms: _289  and  _291
REMARK  126  A    between atoms: _291  and  _292
REMARK  127  A    between atoms: _291  and  _294
REMARK  128  A    between atoms: _294  and  _295
REMARK  129  A    between atoms: _298  and  _300
REMARK  130  A    between atoms: _300  and  _301
REMARK  131  A    between atoms: _300  and  _303
REMARK  132  A    between atoms: _303  and  _304
REMARK  133  A    between atoms: _310  and  _312
REMARK  134  A    between atoms: _312  and  _313
REMARK  135  A    between atoms: _312  and  _315
REMARK  136  A    between atoms: _315  and  _316
REMARK  137  A    between atoms: _316  and  _317
REMARK  138  A    between atoms: _317  and  _318
REMARK  139  A    between atoms: _318  and  _319
REMARK  140  A    between atoms: _323  and  _325
REMARK  141  A    between atoms: _325  and  _326
REMARK  142  A    between atoms: _325  and  _328
REMARK  143  A    between atoms: _328  and  _329
REMARK  144  A    between atoms: _334  and  _336
REMARK  145  A    between atoms: _336  and  _337
REMARK  146  A    between atoms: _336  and  _339
REMARK  147  A    between atoms: _339  and  _340
REMARK  148  A    between atoms: _343  and  _345
REMARK  149  A    between atoms: _345  and  _346
REMARK  150  A    between atoms: _345  and  _348
REMARK  151  A    between atoms: _348  and  _349
REMARK  152  A    between atoms: _352  and  _354
REMARK  153  A    between atoms: _354  and  _355
REMARK  154  A    between atoms: _358  and  _360
REMARK  155  A    between atoms: _360  and  _361
REMARK  156  A    between atoms: _360  and  _363
REMARK  157  A    between atoms: _363  and  _364
REMARK  158  A    between atoms: _367  and  _369
REMARK  159  A    between atoms: _369  and  _370
REMARK  160  A    between atoms: _369  and  _372
REMARK  161  A    between atoms: _372  and  _373
REMARK  162  A    between atoms: _376  and  _378
REMARK  163  A    between atoms: _378  and  _379
REMARK  164  A    between atoms: _378  and  _381
REMARK  165  A    between atoms: _381  and  _382
REMARK  166  A    between atoms: _382  and  _383
REMARK  167  A    between atoms: _383  and  _384
REMARK  168  A    between atoms: _393  and  _395
REMARK  169  A    between atoms: _395  and  _396
REMARK  170  A    between atoms: _395  and  _398
REMARK  171  A    between atoms: _398  and  _399
REMARK  172  A    between atoms: _399  and  _400
REMARK  173  A    between atoms: _405  and  _407
REMARK  174  A    between atoms: _407  and  _408
REMARK  175  A    between atoms: _407  and  _410
REMARK  176  A    between atoms: _410  and  _411
REMARK  177  A    between atoms: _411  and  _412
REMARK  178  A    between atoms: _417  and  _419
REMARK  179  A    between atoms: _419  and  _420
REMARK  180  A    between atoms: _419  and  _422
REMARK  181  A    between atoms: _422  and  _423
REMARK  182  A    between atoms: _433  and  _435
REMARK  183  A    between atoms: _435  and  _436
REMARK  184  A    between atoms: _435  and  _438
REMARK  185  A    between atoms: _438  and  _439
REMARK  186  A    between atoms: _442  and  _444
REMARK  187  A    between atoms: _444  and  _445
REMARK  188  A    between atoms: _444  and  _447
REMARK  189  A    between atoms: _447  and  _448
REMARK  190  A    between atoms: _451  and  _453
REMARK  191  A    between atoms: _453  and  _454
REMARK  192  A    between atoms: _453  and  _456
REMARK  193  A    between atoms: _456  and  _457
REMARK  194  A    between atoms: _457  and  _458
REMARK  195  A    between atoms: _458  and  _459
REMARK  196  A    between atoms: _459  and  _460
REMARK  197  A    between atoms: _464  and  _466
REMARK  198  A    between atoms: _466  and  _467
REMARK  199  A    between atoms: _466  and  _469
REMARK  200  A    between atoms: _469  and  _470
REMARK  201  A    between atoms: _470  and  _471
REMARK  202  A    between atoms: _471  and  _472
REMARK  203  A    between atoms: _481  and  _483
REMARK  204  A    between atoms: _483  and  _484
REMARK  205  A    between atoms: _483  and  _486
REMARK  206  A    between atoms: _486  and  _487
REMARK  207  A    between atoms: _490  and  _492
REMARK  208  A    between atoms: _492  and  _493
REMARK  209  A    between atoms: _492  and  _495
REMARK  210  A    between atoms: _498  and  _500
REMARK  211  A    between atoms: _500  and  _501
REMARK  212  A    between atoms: _500  and  _503
REMARK  213  A    between atoms: _503  and  _504
REMARK  214  A    between atoms: _504  and  _505
REMARK  215  A    between atoms: _508  and  _510
REMARK  216  A    between atoms: _510  and  _511
REMARK  217  A    between atoms: _510  and  _513
REMARK  218  A    between atoms: _515  and  _517
REMARK  219  A    between atoms: _517  and  _518
REMARK  220  A    between atoms: _517  and  _520
REMARK  221  A    between atoms: _520  and  _521
REMARK  222  A    between atoms: _521  and  _522
REMARK  223  A    between atoms: _524  and  _526
REMARK  224  A    between atoms: _526  and  _527
REMARK  225  A    between atoms: _526  and  _529
REMARK  226  A    between atoms: _529  and  _530
REMARK  227  A    between atoms: _532  and  _534
REMARK  228  A    between atoms: _534  and  _535
REMARK  229  A    between atoms: _534  and  _537
REMARK  230  A    between atoms: _537  and  _538
REMARK  231  A    between atoms: _541  and  _543
REMARK  232  A    between atoms: _543  and  _544
REMARK  233  A    between atoms: _543  and  _546
REMARK  234  A    between atoms: _546  and  _547
REMARK  235  A    between atoms: _547  and  _548
REMARK  236  A    between atoms: _548  and  _549
REMARK  237  A    between atoms: _558  and  _560
REMARK  238  A    between atoms: _560  and  _561
REMARK  239  A    between atoms: _560  and  _563
REMARK  240  A    between atoms: _566  and  _568
REMARK  241  A    between atoms: _568  and  _569
REMARK  242  A    between atoms: _568  and  _571
REMARK  243  A    between atoms: _571  and  _572
REMARK  244  A    between atoms: _577  and  _578
REMARK                            x       y       z     vdW  Elec       q    Type
REMARK                         _______ _______ _______ _____ _____    ______ ____
ROOT
ATOM      1  CA  THR A   1      17.422   8.703  -4.790  0.00  0.00    +0.160 C 
ENDROOT
BRANCH   1   2
ATOM      2  N   THR A   1      17.436   7.600  -5.727  0.00  0.00    -0.237 NA
ATOM      3  H   THR A   1      16.540   7.271  -6.141  0.00  0.00    +0.142 HD
ENDBRANCH   1   2
BRANCH   1   4
ATOM      4  C   THR A   1      16.206   8.510  -3.894  0.00  0.00    +0.227 C 
ATOM      5  O   THR A   1      15.215   7.893  -4.312  0.00  0.00    -0.287 OA
ENDBRANCH   1   4
BRANCH   1   6
ATOM      6  CB  THR A   1      17.424  10.086  -5.499  0.00  0.00    +0.134 C 
ATOM      7  CG2 THR A   1      16.141  10.324  -6.298  0.00  0.00    +0.034 C 
BRANCH   6   8
ATOM      8  OG1 THR A   1      17.578  11.127  -4.527  0.00  0.00    -0.383 OA
ATOM      9  HG1 THR A   1      17.579  12.006  -4.983  0.00  0.00    +0.210 HD
ENDBRANCH   6   8
ENDBRANCH   1   6
TORSDOF 4
REMARK  Name = ../refined-set-2016/3hk1/3hk1_pocket.pdb
REMARK  244 active torsions:
REMARK  status: ('A' for Active; 'I' for Inactive)
REMARK    1  A    between atoms: _1  and  _3
REMARK    2  A    between atoms: _3  and  _4
REMARK    3  A    between atoms: _3  and  _6
REMARK    4  A    between atoms: _6  and  _7
REMARK    5  A    between atoms: _10  and  _12
REMARK    6  A    between atoms: _12  and  _13
REMARK    7  A    between atoms: _12  and  _15
REMARK    8  A    between atoms: _18  and  _20
REMARK    9  A    between atoms: _20  and  _21
REMARK   10  A    between atoms: _20  and  _23
REMARK   11  A    between atoms: _23  and  _24
REMARK   12  A    between atoms: _26  and  _28
REMARK   13  A    between atoms: _28  and  _29
REMARK   14  A    between atoms: _28  and  _31
REMARK   15  A    between atoms: _31  and  _32
REMARK   16  A    between atoms: _34  and  _36
REMARK   17  A    between atoms: _36  and  _37
REMARK   18  A    between atoms: _36  and  _39
REMARK   19  A    between atoms: _39  and  _40
REMARK   20  A    between atoms: _46  and  _48
REMARK   21  A    between atoms: _48  and  _49
REMARK   22  A    between atoms: _48  and  _51
REMARK   23  A    between atoms: _51  and  _52
REMARK   24  A    between atoms: _57  and  _58
REMARK   25  A    between atoms: _60  and  _62
REMARK   26  A    between atoms: _62  and  _63
REMARK   27  A    between atoms: _62  and  _65
REMARK   28  A    between atoms: _65  and  _66
REMARK   29  A    between atoms: _66  and  _67
REMARK   30  A    between atoms: _69  and  _71
REMARK   31  A    between atoms: _71  and  _72
REMARK   32  A    between atoms: _71  and  _74
REMARK   33  A    between atoms: _74  and  _75
REMARK   34  A    between atoms: _75  and  _76
REMARK   35  A    between atoms: _76  and  _77
REMARK   36  A    between atoms: _77  and  _78
REMARK   37  A    between atoms: _82  and  _84
REMARK   38  A    between atoms: _84  and  _85
REMARK   39  A    between atoms: _84  and  _87
REMARK   40  A    between atoms: _87  and  _88
REMARK   41  A    between atoms: _88  and  _89
REMARK   42  A    between atoms: _92  and  _94
REMARK   43  A    between atoms: _94  and  _95
REMARK   44  A    between atoms: _94  and  _97
REMARK   45  A    between atoms: _100  and  _102
REMARK   46  A    between atoms: _102  and  _103
REMARK   47  A    between atoms: _105  and  _107
REMARK   48  A    between atoms: _107  and  _108
REMARK   49  A    between atoms: _107  and  _110
REMARK   50  A    between atoms: _113  and  _115
REMARK   51  A    between atoms: _115  and  _116
REMARK   52  A    between atoms: _118  and  _120
REMARK   53  A    between atoms: _120  and  _121
REMARK   54  A    between atoms: _124  and  _126
REMARK   55  A    between atoms: _126  and  _127
REMARK   56  A    between atoms: _126  and  _129
REMARK   57  A    between atoms: _129  and  _130
REMARK   58  A    between atoms: _133  and  _135
REMARK   59  A    between atoms: _135  and  _136
REMARK   60  A    between atoms: _135  and  _138
REMARK   61  A    between atoms: _138  and  _139
REMARK   62  A    between atoms: _139  and  _140
REMARK   63  A    between atoms: _140  and  _141
REMARK   64  A    between atoms: _150  and  _152
REMARK   65  A    between atoms: _152  and  _153
REMARK   66  A    between atoms: _152  and  _155
REMARK   67  A    between atoms: _155  and  _156
REMARK   68  A    between atoms: _156  and  _157
REMARK   69  A    between atoms: _157  and  _158
REMARK   70  A    between atoms: _158  and  _159
REMARK   71  A    between atoms: _163  and  _165
REMARK   72  A    between atoms: _165  and  _166
REMARK   73  A    between atoms: _165  and  _168
REMARK   74  A    between atoms: _171  and  _173
REMARK   75  A    between atoms: _173  and  _174
REMARK   76  A    between atoms: _177  and  _179
REMARK   77  A    between atoms: _179  and  _180
REMARK   78  A    between atoms: _182  and  _184
REMARK   79  A    between atoms: _184  and  _185
REMARK   80  A    between atoms: _184  and  _187
REMARK   81  A    between atoms: _187  and  _188
REMARK   82  A    between atoms: _188  and  _189
REMARK   83  A    between atoms: _191  and  _193
REMARK   84  A    between atoms: _193  and  _194
REMARK   85  A    between atoms: _197  and  _199
REMARK   86  A    between atoms: _199  and  _200
REMARK   87  A    between atoms: _199  and  _202
REMARK   88  A    between atoms: _202  and  _203
REMARK   89  A    between atoms: _203  and  _204
REMARK   90  A    between atoms: _204  and  _205
REMARK   91  A    between atoms: _205  and  _206
REMARK   92  A    between atoms: _211  and  _212
REMARK   93  A    between atoms: _217  and  _219
REMARK   94  A    between atoms: _219  and  _220
REMARK   95  A    between atoms: _219  and  _222
REMARK   96  A    between atoms: _222  and  _223
REMARK   97  A    between atoms: _228  and  _230
REMARK   98  A    between atoms: _230  and  _231
REMARK   99  A    between atoms: _230  and  _233
REMARK  100  A    between atoms: _233  and  _234
REMARK  101  A    between atoms: _234  and  _235
REMARK  102  A    between atoms: _237  and  _239
REMARK  103  A    between atoms: _239  and  _240
REMARK  104  A    between atoms: _239  and  _242
REMARK  105  A    between atoms: _242  and  _243
REMARK  106  A    between atoms: _246  and  _248
REMARK  107  A    between atoms: _248  and  _249
REMARK  108  A    between atoms: _248  and  _251
REMARK  109  A    between atoms: _251  and  _252
REMARK  110  A    between atoms: _252  and  _253
REMARK  111  A    between atoms: _253  and  _254
REMARK  112  A    between atoms: _263  and  _265
REMARK  113  A    between atoms: _265  and  _266
REMARK  114  A    between atoms: _265  and  _268
REMARK  115  A    between atoms: _268  and  _269
REMARK  116  A    between atoms: _271  and  _273
REMARK  117  A    between atoms: _273  and  _274
REMARK  118  A    between atoms: _273  and  _276
REMARK  119  A    between atoms: _276  and  _277
REMARK  120  A    between atoms: _277  and  _278
REMARK  121  A    between atoms: _281  and  _283
REMARK  122  A    between atoms: _283  and  _284
REMARK  123  A    between atoms: _283  and  _286
REMARK  124  A    between atoms: _286  and  _287
REMARK  125  A    between atoms: _289  and  _291
REMARK  126  A    between atoms: _291  and  _292
REMARK  127  A    between atoms: _291  and  _294
REMARK  128  A    between atoms: _294  and  _295
REMARK  129  A    between atoms: _298  and  _300
REMARK  130  A    between atoms: _300  and  _301
REMARK  131  A    between atoms: _300  and  _303
REMARK  132  A    between atoms: _303  and  _304
REMARK  133  A    between atoms: _310  and  _312
REMARK  134  A    between atoms: _312  and  _313
REMARK  135  A    between atoms: _312  and  _315
REMARK  136  A    between atoms: _315  and  _316
REMARK  137  A    between atoms: _316  and  _317
REMARK  138  A    between atoms: _317  and  _318
REMARK  139  A    between atoms: _318  and  _319
REMARK  140  A    between atoms: _323  and  _325
REMARK  141  A    between atoms: _325  and  _326
REMARK  142  A    between atoms: _325  and  _328
REMARK  143  A    between atoms: _328  and  _329
REMARK  144  A    between atoms: _334  and  _336
REMARK  145  A    between atoms: _336  and  _337
REMARK  146  A    between atoms: _336  and  _339
REMARK  147  A    between atoms: _339  and  _340
REMARK  148  A    between atoms: _343  and  _345
REMARK  149  A    between atoms: _345  and  _346
REMARK  150  A    between atoms: _345  and  _348
REMARK  151  A    between atoms: _348  and  _349
REMARK  152  A    between atoms: _352  and  _354
REMARK  153  A    between atoms: _354  and  _355
REMARK  154  A    between atoms: _358  and  _360
REMARK  155  A    between atoms: _360  and  _361
REMARK  156  A    between atoms: _360  and  _363
REMARK  157  A    between atoms: _363  and  _364
REMARK  158  A    between atoms: _367  and  _369
REMARK  159  A    between atoms: _369  and  _370
REMARK  160  A    between atoms: _369  and  _372
REMARK  161  A    between atoms: _372  and  _373
REMARK  162  A    between atoms: _376  and  _378
REMARK  163  A    between atoms: _378  and  _379
REMARK  164  A    between atoms: _378  and  _381
REMARK  165  A    between atoms: _381  and  _382
REMARK  166  A    between atoms: _382  and  _383
REMARK  167  A    between atoms: _383  and  _384
REMARK  168  A    between atoms: _393  and  _395
REMARK  169  A    between atoms: _395  and  _396
REMARK  170  A    between atoms: _395  and  _398
REMARK  171  A    between atoms: _398  and  _399
REMARK  172  A    between atoms: _399  and  _400
REMARK  173  A    between atoms: _405  and  _407
REMARK  174  A    between atoms: _407  and  _408
REMARK  175  A    between atoms: _407  and  _410
REMARK  176  A    between atoms: _410  and  _411
REMARK  177  A    between atoms: _411  and  _412
REMARK  178  A    between atoms: _417  and  _419
REMARK  179  A    between atoms: _419  and  _420
REMARK  180  A    between atoms: _419  and  _422
REMARK  181  A    between atoms: _422  and  _423
REMARK  182  A    between atoms: _433  and  _435
REMARK  183  A    between atoms: _435  and  _436
REMARK  184  A    between atoms: _435  and  _438
REMARK  185  A    between atoms: _438  and  _439
REMARK  186  A    between atoms: _442  and  _444
REMARK  187  A    between atoms: _444  and  _445
REMARK  188  A    between atoms: _444  and  _447
REMARK  189  A    between atoms: _447  and  _448
REMARK  190  A    between atoms: _451  and  _453
REMARK  191  A    between atoms: _453  and  _454
REMARK  192  A    between atoms: _453  and  _456
REMARK  193  A    between atoms: _456  and  _457
REMARK  194  A    between atoms: _457  and  _458
REMARK  195  A    between atoms: _458  and  _459
REMARK  196  A    between atoms: _459  and  _460
REMARK  197  A    between atoms: _464  and  _466
REMARK  198  A    between atoms: _466  and  _467
REMARK  199  A    between atoms: _466  and  _469
REMARK  200  A    between atoms: _469  and  _470
REMARK  201  A    between atoms: _470  and  _471
REMARK  202  A    between atoms: _471  and  _472
REMARK  203  A    between atoms: _481  and  _483
REMARK  204  A    between atoms: _483  and  _484
REMARK  205  A    between atoms: _483  and  _486
REMARK  206  A    between atoms: _486  and  _487
REMARK  207  A    between atoms: _490  and  _492
REMARK  208  A    between atoms: _492  and  _493
REMARK  209  A    between atoms: _492  and  _495
REMARK  210  A    between atoms: _498  and  _500
REMARK  211  A    between atoms: _500  and  _501
REMARK  212  A    between atoms: _500  and  _503
REMARK  213  A    between atoms: _503  and  _504
REMARK  214  A    between atoms: _504  and  _505
REMARK  215  A    between atoms: _508  and  _510
REMARK  216  A    between atoms: _510  and  _511
REMARK  217  A    between atoms: _510  and  _513
REMARK  218  A    between atoms: _515  and  _517
REMARK  219  A    between atoms: _517  and  _518
REMARK  220  A    between atoms: _517  and  _520
REMARK  221  A    between atoms: _520  and  _521
REMARK  222  A    between atoms: _521  and  _522
REMARK  223  A    between atoms: _524  and  _526
REMARK  224  A    between atoms: _526  and  _527
REMARK  225  A    between atoms: _526  and  _529
REMARK  226  A    between atoms: _529  and  _530
REMARK  227  A    between atoms: _532  and  _534
REMARK  228  A    between atoms: _534  and  _535
REMARK  229  A    between atoms: _534  and  _537
REMARK  230  A    between atoms: _537  and  _538
REMARK  231  A    between atoms: _541  and  _543
REMARK  232  A    between atoms: _543  and  _544
REMARK  233  A    between atoms: _543  and  _546
REMARK  234  A    between atoms: _546  and  _547
REMARK  235  A    between atoms: _547  and  _548
REMARK  236  A    between atoms: _548  and  _549
REMARK  237  A    between atoms: _558  and  _560
REMARK  238  A    between atoms: _560  and  _561
REMARK  239  A    between atoms: _560  and  _563
REMARK  240  A    between atoms: _566  and  _568
REMARK  241  A    between atoms: _568  and  _569
REMARK  242  A    between atoms: _568  and  _571
REMARK  243  A    between atoms: _571  and  _572
REMARK  244  A    between atoms: _577  and  _578
REMARK                            x       y       z     vdW  Elec       q    Type
REMARK                         _______ _______ _______ _____ _____    ______ ____
ROOT
ATOM      1  CA  LYS A   2      11.400  11.474   2.727  0.00  0.00    +0.149 C 
ENDROOT
BRANCH   1   3
ATOM      2  C   ILE A   1      11.822  11.243   0.342  0.00  0.00    +0.238 C 
ATOM      3  N   LYS A   2      12.152  11.769   1.521  0.00  0.00    -0.297 N 
ATOM      4  H   LYS A   2      12.970  12.408   1.579  0.00  0.00    +0.150 HD
ATOM      5  O   ILE A   1      10.891  10.455   0.196  0.00  0.00    -0.274 OA
BRANCH   2   6
ATOM      6  CA  ILE A   1      12.706  11.621  -0.843  0.00  0.00    +0.145 C 
BRANCH   6   7
ATOM      7  N   ILE A   1      13.371  10.396  -1.299  0.00  0.00    -0.238 NA
ATOM      8  H   ILE A   1      12.784   9.616  -1.658  0.00  0.00    +0.142 HD
ENDBRANCH   6   7
BRANCH   6   9
ATOM      9  CB  ILE A   1      11.855  12.260  -1.969  0.00  0.00    +0.025 C 
ATOM     10  CG2 ILE A   1      11.174  13.521  -1.481  0.00  0.00    +0.002 C 
BRANCH   9  11
ATOM     11  CG1 ILE A   1      12.720  12.582  -3.208  0.00  0.00    +0.002 C 
ATOM     12  CD1 ILE A   1      12.625  11.544  -4.353  0.00  0.00    +0.000 C 
ENDBRANCH   9  11
ENDBRANCH   6   9
ENDBRANCH   2   6
ENDBRANCH   1   3
BRANCH   1  13
ATOM     13  C   LYS A   2      10.538  12.680   3.094  0.00  0.00    +0.241 C 
ATOM     14  N   ARG A   3       9.248  12.461   3.322  0.00  0.00    -0.298 N 
ATOM     15  H   ARG A   3       8.855  11.510   3.168  0.00  0.00    +0.150 HD
ATOM     16  O   LYS A   2      11.045  13.797   3.180  0.00  0.00    -0.273 OA
BRANCH  14  17
ATOM     17  CA  ARG A   3       8.371  13.536   3.786  0.00  0.00    +0.137 C 
BRANCH  17  18
ATOM     18  C   ARG A   3       7.942  13.192   5.197  0.00  0.00    +0.227 C 
ATOM     19  O   ARG A   3       7.329  12.145   5.426  0.00  0.00    -0.286 OA
ENDBRANCH  17  18
BRANCH  17  20
ATOM     20  CB  ARG A   3       7.154  13.708   2.867  0.00  0.00    +0.031 C 
BRANCH  20  21
ATOM     21  CG  ARG A   3       7.486  14.185   1.434  0.00  0.00    +0.045 C 
BRANCH  21  22
ATOM     22  CD  ARG A   3       6.260  14.044   0.539  0.00  0.00    +0.174 C 
BRANCH  22  23
ATOM     23  NE  ARG A   3       6.426  14.664  -0.778  0.00  0.00    -0.265 N 
ATOM     24  HE  ARG A   3       6.125  15.654  -0.883  0.00  0.00    +0.259 HD
ATOM     25  CZ  ARG A   3       6.933  14.059  -1.854  0.00  0.00    +0.342 C 
ATOM     26  NH2 ARG A   3       7.357  12.794  -1.795  0.00  0.00    -0.292 N 
ATOM     27 HH21 ARG A   3       7.295  12.266  -0.901  0.00  0.00    +0.255 HD
ATOM     28 HH22 ARG A   3       7.750  12.337  -2.643  0.00  0.00    +0.255 HD
ATOM     29  NH1 ARG A   3       7.025  14.726  -3.006  0.00  0.00    -0.292 N 
ATOM     30 HH11 ARG A   3       6.702  15.713  -3.063  0.00  0.00    +0.255 HD
ATOM     31 HH12 ARG A   3       7.419  14.259  -3.847  0.00  0.00    +0.255 HD
ENDBRANCH  22  23
ENDBRANCH  21  22
ENDBRANCH  20  21
ENDBRANCH  17  20
ENDBRANCH  14  17
ENDBRANCH   1  13
BRANCH   1  32
ATOM     32  CB  LYS A   2      12.366  11.159   3.867  0.00  0.00    +0.029 C 
BRANCH  32  33
ATOM     33  CG  LYS A   2      11.693  10.782   5.158  0.00  0.00    +0.000 C 
BRANCH  33  34
ATOM     34  CD  LYS A   2      12.702  10.230   6.154  0.00  0.00    -0.024 C 
BRANCH  34  35
ATOM     35  CE  LYS A   2      13.039  11.260   7.197  0.00  0.00    -0.086 C 
BRANCH  35  36
ATOM     36  NZ  LYS A   2      11.974  11.322   8.231  0.00  0.00    +0.380 N 
ATOM     37  HZ1 LYS A   2      12.224  12.038   8.942  0.00  0.00    -0.089 HD
ATOM     38  HZ2 LYS A   2      11.883  10.393   8.690  0.00  0.00    -0.089 HD
ATOM     39  HZ3 LYS A   2      11.071  11.578   7.782  0.00  0.00    -0.089 HD
ENDBRANCH  35  36
ENDBRANCH  34  35
ENDBRANCH  33  34
ENDBRANCH  32  33
ENDBRANCH   1  32
TORSDOF 17
REMARK  Name = ../refined-set-2016/3hk1/3hk1_pocket.pdb
REMARK  244 active torsions:
REMARK  status: ('A' for Active; 'I' for Inactive)
REMARK    1  A    between atoms: _1  and  _3
REMARK    2  A    between atoms: _3  and  _4
REMARK    3  A    between atoms: _3  and  _6
REMARK    4  A    between atoms: _6  and  _7
REMARK    5  A    between atoms: _10  and  _12
REMARK    6  A    between atoms: _12  and  _13
REMARK    7  A    between atoms: _12  and  _15
REMARK    8  A    between atoms: _18  and  _20
REMARK    9  A    between atoms: _20  and  _21
REMARK   10  A    between atoms: _20  and  _23
REMARK   11  A    between atoms: _23  and  _24
REMARK   12  A    between atoms: _26  and  _28
REMARK   13  A    between atoms: _28  and  _29
REMARK   14  A    between atoms: _28  and  _31
REMARK   15  A    between atoms: _31  and  _32
REMARK   16  A    between atoms: _34  and  _36
REMARK   17  A    between atoms: _36  and  _37
REMARK   18  A    between atoms: _36  and  _39
REMARK   19  A    between atoms: _39  and  _40
REMARK   20  A    between atoms: _46  and  _48
REMARK   21  A    between atoms: _48  and  _49
REMARK   22  A    between atoms: _48  and  _51
REMARK   23  A    between atoms: _51  and  _52
REMARK   24  A    between atoms: _57  and  _58
REMARK   25  A    between atoms: _60  and  _62
REMARK   26  A    between atoms: _62  and  _63
REMARK   27  A    between atoms: _62  and  _65
REMARK   28  A    between atoms: _65  and  _66
REMARK   29  A    between atoms: _66  and  _67
REMARK   30  A    between atoms: _69  and  _71
REMARK   31  A    between atoms: _71  and  _72
REMARK   32  A    between atoms: _71  and  _74
REMARK   33  A    between atoms: _74  and  _75
REMARK   34  A    between atoms: _75  and  _76
REMARK   35  A    between atoms: _76  and  _77
REMARK   36  A    between atoms: _77  and  _78
REMARK   37  A    between atoms: _82  and  _84
REMARK   38  A    between atoms: _84  and  _85
REMARK   39  A    between atoms: _84  and  _87
REMARK   40  A    between atoms: _87  and  _88
REMARK   41  A    between atoms: _88  and  _89
REMARK   42  A    between atoms: _92  and  _94
REMARK   43  A    between atoms: _94  and  _95
REMARK   44  A    between atoms: _94  and  _97
REMARK   45  A    between atoms: _100  and  _102
REMARK   46  A    between atoms: _102  and  _103
REMARK   47  A    between atoms: _105  and  _107
REMARK   48  A    between atoms: _107  and  _108
REMARK   49  A    between atoms: _107  and  _110
REMARK   50  A    between atoms: _113  and  _115
REMARK   51  A    between atoms: _115  and  _116
REMARK   52  A    between atoms: _118  and  _120
REMARK   53  A    between atoms: _120  and  _121
REMARK   54  A    between atoms: _124  and  _126
REMARK   55  A    between atoms: _126  and  _127
REMARK   56  A    between atoms: _126  and  _129
REMARK   57  A    between atoms: _129  and  _130
REMARK   58  A    between atoms: _133  and  _135
REMARK   59  A    between atoms: _135  and  _136
REMARK   60  A    between atoms: _135  and  _138
REMARK   61  A    between atoms: _138  and  _139
REMARK   62  A    between atoms: _139  and  _140
REMARK   63  A    between atoms: _140  and  _141
REMARK   64  A    between atoms: _150  and  _152
REMARK   65  A    between atoms: _152  and  _153
REMARK   66  A    between atoms: _152  and  _155
REMARK   67  A    between atoms: _155  and  _156
REMARK   68  A    between atoms: _156  and  _157
REMARK   69  A    between atoms: _157  and  _158
REMARK   70  A    between atoms: _158  and  _159
REMARK   71  A    between atoms: _163  and  _165
REMARK   72  A    between atoms: _165  and  _166
REMARK   73  A    between atoms: _165  and  _168
REMARK   74  A    between atoms: _171  and  _173
REMARK   75  A    between atoms: _173  and  _174
REMARK   76  A    between atoms: _177  and  _179
REMARK   77  A    between atoms: _179  and  _180
REMARK   78  A    between atoms: _182  and  _184
REMARK   79  A    between atoms: _184  and  _185
REMARK   80  A    between atoms: _184  and  _187
REMARK   81  A    between atoms: _187  and  _188
REMARK   82  A    between atoms: _188  and  _189
REMARK   83  A    between atoms: _191  and  _193
REMARK   84  A    between atoms: _193  and  _194
REMARK   85  A    between atoms: _197  and  _199
REMARK   86  A    between atoms: _199  and  _200
REMARK   87  A    between atoms: _199  and  _202
REMARK   88  A    between atoms: _202  and  _203
REMARK   89  A    between atoms: _203  and  _204
REMARK   90  A    between atoms: _204  and  _205
REMARK   91  A    between atoms: _205  and  _206
REMARK   92  A    between atoms: _211  and  _212
REMARK   93  A    between atoms: _217  and  _219
REMARK   94  A    between atoms: _219  and  _220
REMARK   95  A    between atoms: _219  and  _222
REMARK   96  A    between atoms: _222  and  _223
REMARK   97  A    between atoms: _228  and  _230
REMARK   98  A    between atoms: _230  and  _231
REMARK   99  A    between atoms: _230  and  _233
REMARK  100  A    between atoms: _233  and  _234
REMARK  101  A    between atoms: _234  and  _235
REMARK  102  A    between atoms: _237  and  _239
REMARK  103  A    between atoms: _239  and  _240
REMARK  104  A    between atoms: _239  and  _242
REMARK  105  A    between atoms: _242  and  _243
REMARK  106  A    between atoms: _246  and  _248
REMARK  107  A    between atoms: _248  and  _249
REMARK  108  A    between atoms: _248  and  _251
REMARK  109  A    between atoms: _251  and  _252
REMARK  110  A    between atoms: _252  and  _253
REMARK  111  A    between atoms: _253  and  _254
REMARK  112  A    between atoms: _263  and  _265
REMARK  113  A    between atoms: _265  and  _266
REMARK  114  A    between atoms: _265  and  _268
REMARK  115  A    between atoms: _268  and  _269
REMARK  116  A    between atoms: _271  and  _273
REMARK  117  A    between atoms: _273  and  _274
REMARK  118  A    between atoms: _273  and  _276
REMARK  119  A    between atoms: _276  and  _277
REMARK  120  A    between atoms: _277  and  _278
REMARK  121  A    between atoms: _281  and  _283
REMARK  122  A    between atoms: _283  and  _284
REMARK  123  A    between atoms: _283  and  _286
REMARK  124  A    between atoms: _286  and  _287
REMARK  125  A    between atoms: _289  and  _291
REMARK  126  A    between atoms: _291  and  _292
REMARK  127  A    between atoms: _291  and  _294
REMARK  128  A    between atoms: _294  and  _295
REMARK  129  A    between atoms: _298  and  _300
REMARK  130  A    between atoms: _300  and  _301
REMARK  131  A    between atoms: _300  and  _303
REMARK  132  A    between atoms: _303  and  _304
REMARK  133  A    between atoms: _310  and  _312
REMARK  134  A    between atoms: _312  and  _313
REMARK  135  A    between atoms: _312  and  _315
REMARK  136  A    between atoms: _315  and  _316
REMARK  137  A    between atoms: _316  and  _317
REMARK  138  A    between atoms: _317  and  _318
REMARK  139  A    between atoms: _318  and  _319
REMARK  140  A    between atoms: _323  and  _325
REMARK  141  A    between atoms: _325  and  _326
REMARK  142  A    between atoms: _325  and  _328
REMARK  143  A    between atoms: _328  and  _329
REMARK  144  A    between atoms: _334  and  _336
REMARK  145  A    between atoms: _336  and  _337
REMARK  146  A    between atoms: _336  and  _339
REMARK  147  A    between atoms: _339  and  _340
REMARK  148  A    between atoms: _343  and  _345
REMARK  149  A    between atoms: _345  and  _346
REMARK  150  A    between atoms: _345  and  _348
REMARK  151  A    between atoms: _348  and  _349
REMARK  152  A    between atoms: _352  and  _354
REMARK  153  A    between atoms: _354  and  _355
REMARK  154  A    between atoms: _358  and  _360
REMARK  155  A    between atoms: _360  and  _361
REMARK  156  A    between atoms: _360  and  _363
REMARK  157  A    between atoms: _363  and  _364
REMARK  158  A    between atoms: _367  and  _369
REMARK  159  A    between atoms: _369  and  _370
REMARK  160  A    between atoms: _369  and  _372
REMARK  161  A    between atoms: _372  and  _373
REMARK  162  A    between atoms: _376  and  _378
REMARK  163  A    between atoms: _378  and  _379
REMARK  164  A    between atoms: _378  and  _381
REMARK  165  A    between atoms: _381  and  _382
REMARK  166  A    between atoms: _382  and  _383
REMARK  167  A    between atoms: _383  and  _384
REMARK  168  A    between atoms: _393  and  _395
REMARK  169  A    between atoms: _395  and  _396
REMARK  170  A    between atoms: _395  and  _398
REMARK  171  A    between atoms: _398  and  _399
REMARK  172  A    between atoms: _399  and  _400
REMARK  173  A    between atoms: _405  and  _407
REMARK  174  A    between atoms: _407  and  _408
REMARK  175  A    between atoms: _407  and  _410
REMARK  176  A    between atoms: _410  and  _411
REMARK  177  A    between atoms: _411  and  _412
REMARK  178  A    between atoms: _417  and  _419
REMARK  179  A    between atoms: _419  and  _420
REMARK  180  A    between atoms: _419  and  _422
REMARK  181  A    between atoms: _422  and  _423
REMARK  182  A    between atoms: _433  and  _435
REMARK  183  A    between atoms: _435  and  _436
REMARK  184  A    between atoms: _435  and  _438
REMARK  185  A    between atoms: _438  and  _439
REMARK  186  A    between atoms: _442  and  _444
REMARK  187  A    between atoms: _444  and  _445
REMARK  188  A    between atoms: _444  and  _447
REMARK  189  A    between atoms: _447  and  _448
REMARK  190  A    between atoms: _451  and  _453
REMARK  191  A    between atoms: _453  and  _454
REMARK  192  A    between atoms: _453  and  _456
REMARK  193  A    between atoms: _456  and  _457
REMARK  194  A    between atoms: _457  and  _458
REMARK  195  A    between atoms: _458  and  _459
REMARK  196  A    between atoms: _459  and  _460
REMARK  197  A    between atoms: _464  and  _466
REMARK  198  A    between atoms: _466  and  _467
REMARK  199  A    between atoms: _466  and  _469
REMARK  200  A    between atoms: _469  and  _470
REMARK  201  A    between atoms: _470  and  _471
REMARK  202  A    between atoms: _471  and  _472
REMARK  203  A    between atoms: _481  and  _483
REMARK  204  A    between atoms: _483  and  _484
REMARK  205  A    between atoms: _483  and  _486
REMARK  206  A    between atoms: _486  and  _487
REMARK  207  A    between atoms: _490  and  _492
REMARK  208  A    between atoms: _492  and  _493
REMARK  209  A    between atoms: _492  and  _495
REMARK  210  A    between atoms: _498  and  _500
REMARK  211  A    between atoms: _500  and  _501
REMARK  212  A    between atoms: _500  and  _503
REMARK  213  A    between atoms: _503  and  _504
REMARK  214  A    between atoms: _504  and  _505
REMARK  215  A    between atoms: _508  and  _510
REMARK  216  A    between atoms: _510  and  _511
REMARK  217  A    between atoms: _510  and  _513
REMARK  218  A    between atoms: _515  and  _517
REMARK  219  A    between atoms: _517  and  _518
REMARK  220  A    between atoms: _517  and  _520
REMARK  221  A    between atoms: _520  and  _521
REMARK  222  A    between atoms: _521  and  _522
REMARK  223  A    between atoms: _524  and  _526
REMARK  224  A    between atoms: _526  and  _527
REMARK  225  A    between atoms: _526  and  _529
REMARK  226  A    between atoms: _529  and  _530
REMARK  227  A    between atoms: _532  and  _534
REMARK  228  A    between atoms: _534  and  _535
REMARK  229  A    between atoms: _534  and  _537
REMARK  230  A    between atoms: _537  and  _538
REMARK  231  A    between atoms: _541  and  _543
REMARK  232  A    between atoms: _543  and  _544
REMARK  233  A    between atoms: _543  and  _546
REMARK  234  A    between atoms: _546  and  _547
REMARK  235  A    between atoms: _547  and  _548
REMARK  236  A    between atoms: _548  and  _549
REMARK  237  A    between atoms: _558  and  _560
REMARK  238  A    between atoms: _560  and  _561
REMARK  239  A    between atoms: _560  and  _563
REMARK  240  A    between atoms: _566  and  _568
REMARK  241  A    between atoms: _568  and  _569
REMARK  242  A    between atoms: _568  and  _571
REMARK  243  A    between atoms: _571  and  _572
REMARK  244  A    between atoms: _577  and  _578
REMARK                            x       y       z     vdW  Elec       q    Type
REMARK                         _______ _______ _______ _____ _____    ______ ____
ROOT
ATOM      1  CA  LEU A   1       6.341  19.134   6.722  0.00  0.00    +0.133 C 
ENDROOT
BRANCH   1   2
ATOM      2  N   LEU A   1       6.139  20.302   7.588  0.00  0.00    -0.239 NA
ATOM      3  H   LEU A   1       6.096  21.245   7.152  0.00  0.00    +0.142 HD
ENDBRANCH   1   2
BRANCH   1   4
ATOM      4  C   LEU A   1       7.775  19.284   6.230  0.00  0.00    +0.224 C 
ATOM      5  O   LEU A   1       8.099  20.264   5.535  0.00  0.00    -0.287 OA
ENDBRANCH   1   4
BRANCH   1   6
ATOM      6  CB  LEU A   1       5.360  19.147   5.534  0.00  0.00    +0.025 C 
BRANCH   6   7
ATOM      7  CG  LEU A   1       5.246  17.869   4.681  0.00  0.00    +0.002 C 
ATOM      8  CD2 LEU A   1       6.535  17.541   4.000  0.00  0.00    +0.000 C 
ATOM      9  CD1 LEU A   1       4.128  18.012   3.636  0.00  0.00    +0.000 C 
ENDBRANCH   6   7
ENDBRANCH   1   6
TORSDOF 4
REMARK  Name = ../refined-set-2016/3hk1/3hk1_pocket.pdb
REMARK  244 active torsions:
REMARK  status: ('A' for Active; 'I' for Inactive)
REMARK    1  A    between atoms: _1  and  _3
REMARK    2  A    between atoms: _3  and  _4
REMARK    3  A    between atoms: _3  and  _6
REMARK    4  A    between atoms: _6  and  _7
REMARK    5  A    between atoms: _10  and  _12
REMARK    6  A    between atoms: _12  and  _13
REMARK    7  A    between atoms: _12  and  _15
REMARK    8  A    between atoms: _18  and  _20
REMARK    9  A    between atoms: _20  and  _21
REMARK   10  A    between atoms: _20  and  _23
REMARK   11  A    between atoms: _23  and  _24
REMARK   12  A    between atoms: _26  and  _28
REMARK   13  A    between atoms: _28  and  _29
REMARK   14  A    between atoms: _28  and  _31
REMARK   15  A    between atoms: _31  and  _32
REMARK   16  A    between atoms: _34  and  _36
REMARK   17  A    between atoms: _36  and  _37
REMARK   18  A    between atoms: _36  and  _39
REMARK   19  A    between atoms: _39  and  _40
REMARK   20  A    between atoms: _46  and  _48
REMARK   21  A    between atoms: _48  and  _49
REMARK   22  A    between atoms: _48  and  _51
REMARK   23  A    between atoms: _51  and  _52
REMARK   24  A    between atoms: _57  and  _58
REMARK   25  A    between atoms: _60  and  _62
REMARK   26  A    between atoms: _62  and  _63
REMARK   27  A    between atoms: _62  and  _65
REMARK   28  A    between atoms: _65  and  _66
REMARK   29  A    between atoms: _66  and  _67
REMARK   30  A    between atoms: _69  and  _71
REMARK   31  A    between atoms: _71  and  _72
REMARK   32  A    between atoms: _71  and  _74
REMARK   33  A    between atoms: _74  and  _75
REMARK   34  A    between atoms: _75  and  _76
REMARK   35  A    between atoms: _76  and  _77
REMARK   36  A    between atoms: _77  and  _78
REMARK   37  A    between atoms: _82  and  _84
REMARK   38  A    between atoms: _84  and  _85
REMARK   39  A    between atoms: _84  and  _87
REMARK   40  A    between atoms: _87  and  _88
REMARK   41  A    between atoms: _88  and  _89
REMARK   42  A    between atoms: _92  and  _94
REMARK   43  A    between atoms: _94  and  _95
REMARK   44  A    between atoms: _94  and  _97
REMARK   45  A    between atoms: _100  and  _102
REMARK   46  A    between atoms: _102  and  _103
REMARK   47  A    between atoms: _105  and  _107
REMARK   48  A    between atoms: _107  and  _108
REMARK   49  A    between atoms: _107  and  _110
REMARK   50  A    between atoms: _113  and  _115
REMARK   51  A    between atoms: _115  and  _116
REMARK   52  A    between atoms: _118  and  _120
REMARK   53  A    between atoms: _120  and  _121
REMARK   54  A    between atoms: _124  and  _126
REMARK   55  A    between atoms: _126  and  _127
REMARK   56  A    between atoms: _126  and  _129
REMARK   57  A    between atoms: _129  and  _130
REMARK   58  A    between atoms: _133  and  _135
REMARK   59  A    between atoms: _135  and  _136
REMARK   60  A    between atoms: _135  and  _138
REMARK   61  A    between atoms: _138  and  _139
REMARK   62  A    between atoms: _139  and  _140
REMARK   63  A    between atoms: _140  and  _141
REMARK   64  A    between atoms: _150  and  _152
REMARK   65  A    between atoms: _152  and  _153
REMARK   66  A    between atoms: _152  and  _155
REMARK   67  A    between atoms: _155  and  _156
REMARK   68  A    between atoms: _156  and  _157
REMARK   69  A    between atoms: _157  and  _158
REMARK   70  A    between atoms: _158  and  _159
REMARK   71  A    between atoms: _163  and  _165
REMARK   72  A    between atoms: _165  and  _166
REMARK   73  A    between atoms: _165  and  _168
REMARK   74  A    between atoms: _171  and  _173
REMARK   75  A    between atoms: _173  and  _174
REMARK   76  A    between atoms: _177  and  _179
REMARK   77  A    between atoms: _179  and  _180
REMARK   78  A    between atoms: _182  and  _184
REMARK   79  A    between atoms: _184  and  _185
REMARK   80  A    between atoms: _184  and  _187
REMARK   81  A    between atoms: _187  and  _188
REMARK   82  A    between atoms: _188  and  _189
REMARK   83  A    between atoms: _191  and  _193
REMARK   84  A    between atoms: _193  and  _194
REMARK   85  A    between atoms: _197  and  _199
REMARK   86  A    between atoms: _199  and  _200
REMARK   87  A    between atoms: _199  and  _202
REMARK   88  A    between atoms: _202  and  _203
REMARK   89  A    between atoms: _203  and  _204
REMARK   90  A    between atoms: _204  and  _205
REMARK   91  A    between atoms: _205  and  _206
REMARK   92  A    between atoms: _211  and  _212
REMARK   93  A    between atoms: _217  and  _219
REMARK   94  A    between atoms: _219  and  _220
REMARK   95  A    between atoms: _219  and  _222
REMARK   96  A    between atoms: _222  and  _223
REMARK   97  A    between atoms: _228  and  _230
REMARK   98  A    between atoms: _230  and  _231
REMARK   99  A    between atoms: _230  and  _233
REMARK  100  A    between atoms: _233  and  _234
REMARK  101  A    between atoms: _234  and  _235
REMARK  102  A    between atoms: _237  and  _239
REMARK  103  A    between atoms: _239  and  _240
REMARK  104  A    between atoms: _239  and  _242
REMARK  105  A    between atoms: _242  and  _243
REMARK  106  A    between atoms: _246  and  _248
REMARK  107  A    between atoms: _248  and  _249
REMARK  108  A    between atoms: _248  and  _251
REMARK  109  A    between atoms: _251  and  _252
REMARK  110  A    between atoms: _252  and  _253
REMARK  111  A    between atoms: _253  and  _254
REMARK  112  A    between atoms: _263  and  _265
REMARK  113  A    between atoms: _265  and  _266
REMARK  114  A    between atoms: _265  and  _268
REMARK  115  A    between atoms: _268  and  _269
REMARK  116  A    between atoms: _271  and  _273
REMARK  117  A    between atoms: _273  and  _274
REMARK  118  A    between atoms: _273  and  _276
REMARK  119  A    between atoms: _276  and  _277
REMARK  120  A    between atoms: _277  and  _278
REMARK  121  A    between atoms: _281  and  _283
REMARK  122  A    between atoms: _283  and  _284
REMARK  123  A    between atoms: _283  and  _286
REMARK  124  A    between atoms: _286  and  _287
REMARK  125  A    between atoms: _289  and  _291
REMARK  126  A    between atoms: _291  and  _292
REMARK  127  A    between atoms: _291  and  _294
REMARK  128  A    between atoms: _294  and  _295
REMARK  129  A    between atoms: _298  and  _300
REMARK  130  A    between atoms: _300  and  _301
REMARK  131  A    between atoms: _300  and  _303
REMARK  132  A    between atoms: _303  and  _304
REMARK  133  A    between atoms: _310  and  _312
REMARK  134  A    between atoms: _312  and  _313
REMARK  135  A    between atoms: _312  and  _315
REMARK  136  A    between atoms: _315  and  _316
REMARK  137  A    between atoms: _316  and  _317
REMARK  138  A    between atoms: _317  and  _318
REMARK  139  A    between atoms: _318  and  _319
REMARK  140  A    between atoms: _323  and  _325
REMARK  141  A    between atoms: _325  and  _326
REMARK  142  A    between atoms: _325  and  _328
REMARK  143  A    between atoms: _328  and  _329
REMARK  144  A    between atoms: _334  and  _336
REMARK  145  A    between atoms: _336  and  _337
REMARK  146  A    between atoms: _336  and  _339
REMARK  147  A    between atoms: _339  and  _340
REMARK  148  A    between atoms: _343  and  _345
REMARK  149  A    between atoms: _345  and  _346
REMARK  150  A    between atoms: _345  and  _348
REMARK  151  A    between atoms: _348  and  _349
REMARK  152  A    between atoms: _352  and  _354
REMARK  153  A    between atoms: _354  and  _355
REMARK  154  A    between atoms: _358  and  _360
REMARK  155  A    between atoms: _360  and  _361
REMARK  156  A    between atoms: _360  and  _363
REMARK  157  A    between atoms: _363  and  _364
REMARK  158  A    between atoms: _367  and  _369
REMARK  159  A    between atoms: _369  and  _370
REMARK  160  A    between atoms: _369  and  _372
REMARK  161  A    between atoms: _372  and  _373
REMARK  162  A    between atoms: _376  and  _378
REMARK  163  A    between atoms: _378  and  _379
REMARK  164  A    between atoms: _378  and  _381
REMARK  165  A    between atoms: _381  and  _382
REMARK  166  A    between atoms: _382  and  _383
REMARK  167  A    between atoms: _383  and  _384
REMARK  168  A    between atoms: _393  and  _395
REMARK  169  A    between atoms: _395  and  _396
REMARK  170  A    between atoms: _395  and  _398
REMARK  171  A    between atoms: _398  and  _399
REMARK  172  A    between atoms: _399  and  _400
REMARK  173  A    between atoms: _405  and  _407
REMARK  174  A    between atoms: _407  and  _408
REMARK  175  A    between atoms: _407  and  _410
REMARK  176  A    between atoms: _410  and  _411
REMARK  177  A    between atoms: _411  and  _412
REMARK  178  A    between atoms: _417  and  _419
REMARK  179  A    between atoms: _419  and  _420
REMARK  180  A    between atoms: _419  and  _422
REMARK  181  A    between atoms: _422  and  _423
REMARK  182  A    between atoms: _433  and  _435
REMARK  183  A    between atoms: _435  and  _436
REMARK  184  A    between atoms: _435  and  _438
REMARK  185  A    between atoms: _438  and  _439
REMARK  186  A    between atoms: _442  and  _444
REMARK  187  A    between atoms: _444  and  _445
REMARK  188  A    between atoms: _444  and  _447
REMARK  189  A    between atoms: _447  and  _448
REMARK  190  A    between atoms: _451  and  _453
REMARK  191  A    between atoms: _453  and  _454
REMARK  192  A    between atoms: _453  and  _456
REMARK  193  A    between atoms: _456  and  _457
REMARK  194  A    between atoms: _457  and  _458
REMARK  195  A    between atoms: _458  and  _459
REMARK  196  A    between atoms: _459  and  _460
REMARK  197  A    between atoms: _464  and  _466
REMARK  198  A    between atoms: _466  and  _467
REMARK  199  A    between atoms: _466  and  _469
REMARK  200  A    between atoms: _469  and  _470
REMARK  201  A    between atoms: _470  and  _471
REMARK  202  A    between atoms: _471  and  _472
REMARK  203  A    between atoms: _481  and  _483
REMARK  204  A    between atoms: _483  and  _484
REMARK  205  A    between atoms: _483  and  _486
REMARK  206  A    between atoms: _486  and  _487
REMARK  207  A    between atoms: _490  and  _492
REMARK  208  A    between atoms: _492  and  _493
REMARK  209  A    between atoms: _492  and  _495
REMARK  210  A    between atoms: _498  and  _500
REMARK  211  A    between atoms: _500  and  _501
REMARK  212  A    between atoms: _500  and  _503
REMARK  213  A    between atoms: _503  and  _504
REMARK  214  A    between atoms: _504  and  _505
REMARK  215  A    between atoms: _508  and  _510
REMARK  216  A    between atoms: _510  and  _511
REMARK  217  A    between atoms: _510  and  _513
REMARK  218  A    between atoms: _515  and  _517
REMARK  219  A    between atoms: _517  and  _518
REMARK  220  A    between atoms: _517  and  _520
REMARK  221  A    between atoms: _520  and  _521
REMARK  222  A    between atoms: _521  and  _522
REMARK  223  A    between atoms: _524  and  _526
REMARK  224  A    between atoms: _526  and  _527
REMARK  225  A    between atoms: _526  and  _529
REMARK  226  A    between atoms: _529  and  _530
REMARK  227  A    between atoms: _532  and  _534
REMARK  228  A    between atoms: _534  and  _535
REMARK  229  A    between atoms: _534  and  _537
REMARK  230  A    between atoms: _537  and  _538
REMARK  231  A    between atoms: _541  and  _543
REMARK  232  A    between atoms: _543  and  _544
REMARK  233  A    between atoms: _543  and  _546
REMARK  234  A    between atoms: _546  and  _547
REMARK  235  A    between atoms: _547  and  _548
REMARK  236  A    between atoms: _548  and  _549
REMARK  237  A    between atoms: _558  and  _560
REMARK  238  A    between atoms: _560  and  _561
REMARK  239  A    between atoms: _560  and  _563
REMARK  240  A    between atoms: _566  and  _568
REMARK  241  A    between atoms: _568  and  _569
REMARK  242  A    between atoms: _568  and  _571
REMARK  243  A    between atoms: _571  and  _572
REMARK  244  A    between atoms: _577  and  _578
REMARK                            x       y       z     vdW  Elec       q    Type
REMARK                         _______ _______ _______ _____ _____    ______ ____
ROOT
ATOM      1  CA  GLU A   2      14.660  15.362   2.920  0.00  0.00    +0.149 C 
ENDROOT
BRANCH   1   3
ATOM      2  C   VAL A   1      12.770  16.892   2.862  0.00  0.00    +0.238 C 
ATOM      3  N   GLU A   2      13.235  15.656   3.016  0.00  0.00    -0.297 N 
ATOM      4  H   GLU A   2      12.568  14.882   3.209  0.00  0.00    +0.150 HD
ATOM      5  O   VAL A   1      13.490  17.859   2.617  0.00  0.00    -0.274 OA
BRANCH   2   6
ATOM      6  CA  VAL A   1      11.257  17.067   2.995  0.00  0.00    +0.145 C 
BRANCH   6   7
ATOM      7  CB  VAL A   1      10.674  17.656   1.694  0.00  0.00    +0.025 C 
ATOM      8  CG2 VAL A   1       9.176  17.984   1.863  0.00  0.00    +0.002 C 
ATOM      9  CG1 VAL A   1      10.878  16.667   0.538  0.00  0.00    +0.002 C 
ENDBRANCH   6   7
BRANCH   6  10
ATOM     10  N   VAL A   1      10.950  17.905   4.150  0.00  0.00    -0.238 NA
ATOM     11  H   VAL A   1      11.212  18.911   4.138  0.00  0.00    +0.142 HD
ENDBRANCH   6  10
ENDBRANCH   2   6
ENDBRANCH   1   3
BRANCH   1  12
ATOM     12  C   GLU A   2      14.929  14.536   1.666  0.00  0.00    +0.241 C 
ATOM     13  O   GLU A   2      14.402  13.435   1.528  0.00  0.00    -0.273 OA
ATOM     14  N   CYS A   3      15.743  15.076   0.756  0.00  0.00    -0.297 N 
ATOM     15  H   CYS A   3      16.130  16.027   0.919  0.00  0.00    +0.150 HD
BRANCH  14  16
ATOM     16  CA  CYS A   3      16.101  14.359  -0.463  0.00  0.00    +0.149 C 
BRANCH  16  17
ATOM     17  C   CYS A   3      17.551  13.950  -0.365  0.00  0.00    +0.228 C 
ATOM     18  O   CYS A   3      18.399  14.782  -0.055  0.00  0.00    -0.286 OA
ENDBRANCH  16  17
BRANCH  16  19
ATOM     19  CB  CYS A   3      15.923  15.257  -1.677  0.00  0.00    +0.096 C 
ATOM     20  SG  CYS A   3      14.283  15.950  -1.780  0.00  0.00    -0.080 S 
ENDBRANCH  16  19
ENDBRANCH  14  16
ENDBRANCH   1  12
BRANCH   1  21
ATOM     21  CB  GLU A   2      15.107  14.623   4.183  0.00  0.00    +0.041 C 
BRANCH  21  22
ATOM     22  CG  GLU A   2      15.028  15.514   5.434  0.00  0.00    +0.116 C 
BRANCH  22  23
ATOM     23  CD  GLU A   2      15.216  14.764   6.758  0.00  0.00    +0.365 C 
ATOM     24  OE2 GLU A   2      15.649  15.402   7.748  0.00  0.00    -0.246 OA
ATOM     25  OE1 GLU A   2      14.911  13.552   6.829  0.00  0.00    -0.246 OA
ENDBRANCH  22  23
ENDBRANCH  21  22
ENDBRANCH   1  21
TORSDOF 11
REMARK  Name = ../refined-set-2016/3hk1/3hk1_pocket.pdb
REMARK  244 active torsions:
REMARK  status: ('A' for Active; 'I' for Inactive)
REMARK    1  A    between atoms: _1  and  _3
REMARK    2  A    between atoms: _3  and  _4
REMARK    3  A    between atoms: _3  and  _6
REMARK    4  A    between atoms: _6  and  _7
REMARK    5  A    between atoms: _10  and  _12
REMARK    6  A    between atoms: _12  and  _13
REMARK    7  A    between atoms: _12  and  _15
REMARK    8  A    between atoms: _18  and  _20
REMARK    9  A    between atoms: _20  and  _21
REMARK   10  A    between atoms: _20  and  _23
REMARK   11  A    between atoms: _23  and  _24
REMARK   12  A    between atoms: _26  and  _28
REMARK   13  A    between atoms: _28  and  _29
REMARK   14  A    between atoms: _28  and  _31
REMARK   15  A    between atoms: _31  and  _32
REMARK   16  A    between atoms: _34  and  _36
REMARK   17  A    between atoms: _36  and  _37
REMARK   18  A    between atoms: _36  and  _39
REMARK   19  A    between atoms: _39  and  _40
REMARK   20  A    between atoms: _46  and  _48
REMARK   21  A    between atoms: _48  and  _49
REMARK   22  A    between atoms: _48  and  _51
REMARK   23  A    between atoms: _51  and  _52
REMARK   24  A    between atoms: _57  and  _58
REMARK   25  A    between atoms: _60  and  _62
REMARK   26  A    between atoms: _62  and  _63
REMARK   27  A    between atoms: _62  and  _65
REMARK   28  A    between atoms: _65  and  _66
REMARK   29  A    between atoms: _66  and  _67
REMARK   30  A    between atoms: _69  and  _71
REMARK   31  A    between atoms: _71  and  _72
REMARK   32  A    between atoms: _71  and  _74
REMARK   33  A    between atoms: _74  and  _75
REMARK   34  A    between atoms: _75  and  _76
REMARK   35  A    between atoms: _76  and  _77
REMARK   36  A    between atoms: _77  and  _78
REMARK   37  A    between atoms: _82  and  _84
REMARK   38  A    between atoms: _84  and  _85
REMARK   39  A    between atoms: _84  and  _87
REMARK   40  A    between atoms: _87  and  _88
REMARK   41  A    between atoms: _88  and  _89
REMARK   42  A    between atoms: _92  and  _94
REMARK   43  A    between atoms: _94  and  _95
REMARK   44  A    between atoms: _94  and  _97
REMARK   45  A    between atoms: _100  and  _102
REMARK   46  A    between atoms: _102  and  _103
REMARK   47  A    between atoms: _105  and  _107
REMARK   48  A    between atoms: _107  and  _108
REMARK   49  A    between atoms: _107  and  _110
REMARK   50  A    between atoms: _113  and  _115
REMARK   51  A    between atoms: _115  and  _116
REMARK   52  A    between atoms: _118  and  _120
REMARK   53  A    between atoms: _120  and  _121
REMARK   54  A    between atoms: _124  and  _126
REMARK   55  A    between atoms: _126  and  _127
REMARK   56  A    between atoms: _126  and  _129
REMARK   57  A    between atoms: _129  and  _130
REMARK   58  A    between atoms: _133  and  _135
REMARK   59  A    between atoms: _135  and  _136
REMARK   60  A    between atoms: _135  and  _138
REMARK   61  A    between atoms: _138  and  _139
REMARK   62  A    between atoms: _139  and  _140
REMARK   63  A    between atoms: _140  and  _141
REMARK   64  A    between atoms: _150  and  _152
REMARK   65  A    between atoms: _152  and  _153
REMARK   66  A    between atoms: _152  and  _155
REMARK   67  A    between atoms: _155  and  _156
REMARK   68  A    between atoms: _156  and  _157
REMARK   69  A    between atoms: _157  and  _158
REMARK   70  A    between atoms: _158  and  _159
REMARK   71  A    between atoms: _163  and  _165
REMARK   72  A    between atoms: _165  and  _166
REMARK   73  A    between atoms: _165  and  _168
REMARK   74  A    between atoms: _171  and  _173
REMARK   75  A    between atoms: _173  and  _174
REMARK   76  A    between atoms: _177  and  _179
REMARK   77  A    between atoms: _179  and  _180
REMARK   78  A    between atoms: _182  and  _184
REMARK   79  A    between atoms: _184  and  _185
REMARK   80  A    between atoms: _184  and  _187
REMARK   81  A    between atoms: _187  and  _188
REMARK   82  A    between atoms: _188  and  _189
REMARK   83  A    between atoms: _191  and  _193
REMARK   84  A    between atoms: _193  and  _194
REMARK   85  A    between atoms: _197  and  _199
REMARK   86  A    between atoms: _199  and  _200
REMARK   87  A    between atoms: _199  and  _202
REMARK   88  A    between atoms: _202  and  _203
REMARK   89  A    between atoms: _203  and  _204
REMARK   90  A    between atoms: _204  and  _205
REMARK   91  A    between atoms: _205  and  _206
REMARK   92  A    between atoms: _211  and  _212
REMARK   93  A    between atoms: _217  and  _219
REMARK   94  A    between atoms: _219  and  _220
REMARK   95  A    between atoms: _219  and  _222
REMARK   96  A    between atoms: _222  and  _223
REMARK   97  A    between atoms: _228  and  _230
REMARK   98  A    between atoms: _230  and  _231
REMARK   99  A    between atoms: _230  and  _233
REMARK  100  A    between atoms: _233  and  _234
REMARK  101  A    between atoms: _234  and  _235
REMARK  102  A    between atoms: _237  and  _239
REMARK  103  A    between atoms: _239  and  _240
REMARK  104  A    between atoms: _239  and  _242
REMARK  105  A    between atoms: _242  and  _243
REMARK  106  A    between atoms: _246  and  _248
REMARK  107  A    between atoms: _248  and  _249
REMARK  108  A    between atoms: _248  and  _251
REMARK  109  A    between atoms: _251  and  _252
REMARK  110  A    between atoms: _252  and  _253
REMARK  111  A    between atoms: _253  and  _254
REMARK  112  A    between atoms: _263  and  _265
REMARK  113  A    between atoms: _265  and  _266
REMARK  114  A    between atoms: _265  and  _268
REMARK  115  A    between atoms: _268  and  _269
REMARK  116  A    between atoms: _271  and  _273
REMARK  117  A    between atoms: _273  and  _274
REMARK  118  A    between atoms: _273  and  _276
REMARK  119  A    between atoms: _276  and  _277
REMARK  120  A    between atoms: _277  and  _278
REMARK  121  A    between atoms: _281  and  _283
REMARK  122  A    between atoms: _283  and  _284
REMARK  123  A    between atoms: _283  and  _286
REMARK  124  A    between atoms: _286  and  _287
REMARK  125  A    between atoms: _289  and  _291
REMARK  126  A    between atoms: _291  and  _292
REMARK  127  A    between atoms: _291  and  _294
REMARK  128  A    between atoms: _294  and  _295
REMARK  129  A    between atoms: _298  and  _300
REMARK  130  A    between atoms: _300  and  _301
REMARK  131  A    between atoms: _300  and  _303
REMARK  132  A    between atoms: _303  and  _304
REMARK  133  A    between atoms: _310  and  _312
REMARK  134  A    between atoms: _312  and  _313
REMARK  135  A    between atoms: _312  and  _315
REMARK  136  A    between atoms: _315  and  _316
REMARK  137  A    between atoms: _316  and  _317
REMARK  138  A    between atoms: _317  and  _318
REMARK  139  A    between atoms: _318  and  _319
REMARK  140  A    between atoms: _323  and  _325
REMARK  141  A    between atoms: _325  and  _326
REMARK  142  A    between atoms: _325  and  _328
REMARK  143  A    between atoms: _328  and  _329
REMARK  144  A    between atoms: _334  and  _336
REMARK  145  A    between atoms: _336  and  _337
REMARK  146  A    between atoms: _336  and  _339
REMARK  147  A    between atoms: _339  and  _340
REMARK  148  A    between atoms: _343  and  _345
REMARK  149  A    between atoms: _345  and  _346
REMARK  150  A    between atoms: _345  and  _348
REMARK  151  A    between atoms: _348  and  _349
REMARK  152  A    between atoms: _352  and  _354
REMARK  153  A    between atoms: _354  and  _355
REMARK  154  A    between atoms: _358  and  _360
REMARK  155  A    between atoms: _360  and  _361
REMARK  156  A    between atoms: _360  and  _363
REMARK  157  A    between atoms: _363  and  _364
REMARK  158  A    between atoms: _367  and  _369
REMARK  159  A    between atoms: _369  and  _370
REMARK  160  A    between atoms: _369  and  _372
REMARK  161  A    between atoms: _372  and  _373
REMARK  162  A    between atoms: _376  and  _378
REMARK  163  A    between atoms: _378  and  _379
REMARK  164  A    between atoms: _378  and  _381
REMARK  165  A    between atoms: _381  and  _382
REMARK  166  A    between atoms: _382  and  _383
REMARK  167  A    between atoms: _383  and  _384
REMARK  168  A    between atoms: _393  and  _395
REMARK  169  A    between atoms: _395  and  _396
REMARK  170  A    between atoms: _395  and  _398
REMARK  171  A    between atoms: _398  and  _399
REMARK  172  A    between atoms: _399  and  _400
REMARK  173  A    between atoms: _405  and  _407
REMARK  174  A    between atoms: _407  and  _408
REMARK  175  A    between atoms: _407  and  _410
REMARK  176  A    between atoms: _410  and  _411
REMARK  177  A    between atoms: _411  and  _412
REMARK  178  A    between atoms: _417  and  _419
REMARK  179  A    between atoms: _419  and  _420
REMARK  180  A    between atoms: _419  and  _422
REMARK  181  A    between atoms: _422  and  _423
REMARK  182  A    between atoms: _433  and  _435
REMARK  183  A    between atoms: _435  and  _436
REMARK  184  A    between atoms: _435  and  _438
REMARK  185  A    between atoms: _438  and  _439
REMARK  186  A    between atoms: _442  and  _444
REMARK  187  A    between atoms: _444  and  _445
REMARK  188  A    between atoms: _444  and  _447
REMARK  189  A    between atoms: _447  and  _448
REMARK  190  A    between atoms: _451  and  _453
REMARK  191  A    between atoms: _453  and  _454
REMARK  192  A    between atoms: _453  and  _456
REMARK  193  A    between atoms: _456  and  _457
REMARK  194  A    between atoms: _457  and  _458
REMARK  195  A    between atoms: _458  and  _459
REMARK  196  A    between atoms: _459  and  _460
REMARK  197  A    between atoms: _464  and  _466
REMARK  198  A    between atoms: _466  and  _467
REMARK  199  A    between atoms: _466  and  _469
REMARK  200  A    between atoms: _469  and  _470
REMARK  201  A    between atoms: _470  and  _471
REMARK  202  A    between atoms: _471  and  _472
REMARK  203  A    between atoms: _481  and  _483
REMARK  204  A    between atoms: _483  and  _484
REMARK  205  A    between atoms: _483  and  _486
REMARK  206  A    between atoms: _486  and  _487
REMARK  207  A    between atoms: _490  and  _492
REMARK  208  A    between atoms: _492  and  _493
REMARK  209  A    between atoms: _492  and  _495
REMARK  210  A    between atoms: _498  and  _500
REMARK  211  A    between atoms: _500  and  _501
REMARK  212  A    between atoms: _500  and  _503
REMARK  213  A    between atoms: _503  and  _504
REMARK  214  A    between atoms: _504  and  _505
REMARK  215  A    between atoms: _508  and  _510
REMARK  216  A    between atoms: _510  and  _511
REMARK  217  A    between atoms: _510  and  _513
REMARK  218  A    between atoms: _515  and  _517
REMARK  219  A    between atoms: _517  and  _518
REMARK  220  A    between atoms: _517  and  _520
REMARK  221  A    between atoms: _520  and  _521
REMARK  222  A    between atoms: _521  and  _522
REMARK  223  A    between atoms: _524  and  _526
REMARK  224  A    between atoms: _526  and  _527
REMARK  225  A    between atoms: _526  and  _529
REMARK  226  A    between atoms: _529  and  _530
REMARK  227  A    between atoms: _532  and  _534
REMARK  228  A    between atoms: _534  and  _535
REMARK  229  A    between atoms: _534  and  _537
REMARK  230  A    between atoms: _537  and  _538
REMARK  231  A    between atoms: _541  and  _543
REMARK  232  A    between atoms: _543  and  _544
REMARK  233  A    between atoms: _543  and  _546
REMARK  234  A    between atoms: _546  and  _547
REMARK  235  A    between atoms: _547  and  _548
REMARK  236  A    between atoms: _548  and  _549
REMARK  237  A    between atoms: _558  and  _560
REMARK  238  A    between atoms: _560  and  _561
REMARK  239  A    between atoms: _560  and  _563
REMARK  240  A    between atoms: _566  and  _568
REMARK  241  A    between atoms: _568  and  _569
REMARK  242  A    between atoms: _568  and  _571
REMARK  243  A    between atoms: _571  and  _572
REMARK  244  A    between atoms: _577  and  _578
REMARK                            x       y       z     vdW  Elec       q    Type
REMARK                         _______ _______ _______ _____ _____    ______ ____
ROOT
ATOM      1  CA  MET A   1      21.374  10.714  -3.131  0.00  0.00    +0.134 C 
ENDROOT
BRANCH   1   2
ATOM      2  N   MET A   1      20.793  11.599  -2.145  0.00  0.00    -0.239 NA
ATOM      3  H   MET A   1      21.315  12.443  -1.833  0.00  0.00    +0.142 HD
ENDBRANCH   1   2
BRANCH   1   4
ATOM      4  C   MET A   1      22.859  10.564  -2.856  0.00  0.00    +0.224 C 
ATOM      5  O   MET A   1      23.563  11.563  -2.714  0.00  0.00    -0.287 OA
ENDBRANCH   1   4
BRANCH   1   6
ATOM      6  CB  MET A   1      21.166  11.218  -4.549  0.00  0.00    +0.037 C 
BRANCH   6   7
ATOM      7  CG  MET A   1      21.670  10.199  -5.562  0.00  0.00    +0.059 C 
BRANCH   7   8
ATOM      8  SD  MET A   1      21.350  10.713  -7.205  0.00  0.00    -0.139 S 
ATOM      9  CE  MET A   1      22.198   9.444  -8.147  0.00  0.00    +0.069 C 
ENDBRANCH   7   8
ENDBRANCH   6   7
ENDBRANCH   1   6
TORSDOF 5
REMARK  Name = ../refined-set-2016/3hk1/3hk1_pocket.pdb
REMARK  244 active torsions:
REMARK  status: ('A' for Active; 'I' for Inactive)
REMARK    1  A    between atoms: _1  and  _3
REMARK    2  A    between atoms: _3  and  _4
REMARK    3  A    between atoms: _3  and  _6
REMARK    4  A    between atoms: _6  and  _7
REMARK    5  A    between atoms: _10  and  _12
REMARK    6  A    between atoms: _12  and  _13
REMARK    7  A    between atoms: _12  and  _15
REMARK    8  A    between atoms: _18  and  _20
REMARK    9  A    between atoms: _20  and  _21
REMARK   10  A    between atoms: _20  and  _23
REMARK   11  A    between atoms: _23  and  _24
REMARK   12  A    between atoms: _26  and  _28
REMARK   13  A    between atoms: _28  and  _29
REMARK   14  A    between atoms: _28  and  _31
REMARK   15  A    between atoms: _31  and  _32
REMARK   16  A    between atoms: _34  and  _36
REMARK   17  A    between atoms: _36  and  _37
REMARK   18  A    between atoms: _36  and  _39
REMARK   19  A    between atoms: _39  and  _40
REMARK   20  A    between atoms: _46  and  _48
REMARK   21  A    between atoms: _48  and  _49
REMARK   22  A    between atoms: _48  and  _51
REMARK   23  A    between atoms: _51  and  _52
REMARK   24  A    between atoms: _57  and  _58
REMARK   25  A    between atoms: _60  and  _62
REMARK   26  A    between atoms: _62  and  _63
REMARK   27  A    between atoms: _62  and  _65
REMARK   28  A    between atoms: _65  and  _66
REMARK   29  A    between atoms: _66  and  _67
REMARK   30  A    between atoms: _69  and  _71
REMARK   31  A    between atoms: _71  and  _72
REMARK   32  A    between atoms: _71  and  _74
REMARK   33  A    between atoms: _74  and  _75
REMARK   34  A    between atoms: _75  and  _76
REMARK   35  A    between atoms: _76  and  _77
REMARK   36  A    between atoms: _77  and  _78
REMARK   37  A    between atoms: _82  and  _84
REMARK   38  A    between atoms: _84  and  _85
REMARK   39  A    between atoms: _84  and  _87
REMARK   40  A    between atoms: _87  and  _88
REMARK   41  A    between atoms: _88  and  _89
REMARK   42  A    between atoms: _92  and  _94
REMARK   43  A    between atoms: _94  and  _95
REMARK   44  A    between atoms: _94  and  _97
REMARK   45  A    between atoms: _100  and  _102
REMARK   46  A    between atoms: _102  and  _103
REMARK   47  A    between atoms: _105  and  _107
REMARK   48  A    between atoms: _107  and  _108
REMARK   49  A    between atoms: _107  and  _110
REMARK   50  A    between atoms: _113  and  _115
REMARK   51  A    between atoms: _115  and  _116
REMARK   52  A    between atoms: _118  and  _120
REMARK   53  A    between atoms: _120  and  _121
REMARK   54  A    between atoms: _124  and  _126
REMARK   55  A    between atoms: _126  and  _127
REMARK   56  A    between atoms: _126  and  _129
REMARK   57  A    between atoms: _129  and  _130
REMARK   58  A    between atoms: _133  and  _135
REMARK   59  A    between atoms: _135  and  _136
REMARK   60  A    between atoms: _135  and  _138
REMARK   61  A    between atoms: _138  and  _139
REMARK   62  A    between atoms: _139  and  _140
REMARK   63  A    between atoms: _140  and  _141
REMARK   64  A    between atoms: _150  and  _152
REMARK   65  A    between atoms: _152  and  _153
REMARK   66  A    between atoms: _152  and  _155
REMARK   67  A    between atoms: _155  and  _156
REMARK   68  A    between atoms: _156  and  _157
REMARK   69  A    between atoms: _157  and  _158
REMARK   70  A    between atoms: _158  and  _159
REMARK   71  A    between atoms: _163  and  _165
REMARK   72  A    between atoms: _165  and  _166
REMARK   73  A    between atoms: _165  and  _168
REMARK   74  A    between atoms: _171  and  _173
REMARK   75  A    between atoms: _173  and  _174
REMARK   76  A    between atoms: _177  and  _179
REMARK   77  A    between atoms: _179  and  _180
REMARK   78  A    between atoms: _182  and  _184
REMARK   79  A    between atoms: _184  and  _185
REMARK   80  A    between atoms: _184  and  _187
REMARK   81  A    between atoms: _187  and  _188
REMARK   82  A    between atoms: _188  and  _189
REMARK   83  A    between atoms: _191  and  _193
REMARK   84  A    between atoms: _193  and  _194
REMARK   85  A    between atoms: _197  and  _199
REMARK   86  A    between atoms: _199  and  _200
REMARK   87  A    between atoms: _199  and  _202
REMARK   88  A    between atoms: _202  and  _203
REMARK   89  A    between atoms: _203  and  _204
REMARK   90  A    between atoms: _204  and  _205
REMARK   91  A    between atoms: _205  and  _206
REMARK   92  A    between atoms: _211  and  _212
REMARK   93  A    between atoms: _217  and  _219
REMARK   94  A    between atoms: _219  and  _220
REMARK   95  A    between atoms: _219  and  _222
REMARK   96  A    between atoms: _222  and  _223
REMARK   97  A    between atoms: _228  and  _230
REMARK   98  A    between atoms: _230  and  _231
REMARK   99  A    between atoms: _230  and  _233
REMARK  100  A    between atoms: _233  and  _234
REMARK  101  A    between atoms: _234  and  _235
REMARK  102  A    between atoms: _237  and  _239
REMARK  103  A    between atoms: _239  and  _240
REMARK  104  A    between atoms: _239  and  _242
REMARK  105  A    between atoms: _242  and  _243
REMARK  106  A    between atoms: _246  and  _248
REMARK  107  A    between atoms: _248  and  _249
REMARK  108  A    between atoms: _248  and  _251
REMARK  109  A    between atoms: _251  and  _252
REMARK  110  A    between atoms: _252  and  _253
REMARK  111  A    between atoms: _253  and  _254
REMARK  112  A    between atoms: _263  and  _265
REMARK  113  A    between atoms: _265  and  _266
REMARK  114  A    between atoms: _265  and  _268
REMARK  115  A    between atoms: _268  and  _269
REMARK  116  A    between atoms: _271  and  _273
REMARK  117  A    between atoms: _273  and  _274
REMARK  118  A    between atoms: _273  and  _276
REMARK  119  A    between atoms: _276  and  _277
REMARK  120  A    between atoms: _277  and  _278
REMARK  121  A    between atoms: _281  and  _283
REMARK  122  A    between atoms: _283  and  _284
REMARK  123  A    between atoms: _283  and  _286
REMARK  124  A    between atoms: _286  and  _287
REMARK  125  A    between atoms: _289  and  _291
REMARK  126  A    between atoms: _291  and  _292
REMARK  127  A    between atoms: _291  and  _294
REMARK  128  A    between atoms: _294  and  _295
REMARK  129  A    between atoms: _298  and  _300
REMARK  130  A    between atoms: _300  and  _301
REMARK  131  A    between atoms: _300  and  _303
REMARK  132  A    between atoms: _303  and  _304
REMARK  133  A    between atoms: _310  and  _312
REMARK  134  A    between atoms: _312  and  _313
REMARK  135  A    between atoms: _312  and  _315
REMARK  136  A    between atoms: _315  and  _316
REMARK  137  A    between atoms: _316  and  _317
REMARK  138  A    between atoms: _317  and  _318
REMARK  139  A    between atoms: _318  and  _319
REMARK  140  A    between atoms: _323  and  _325
REMARK  141  A    between atoms: _325  and  _326
REMARK  142  A    between atoms: _325  and  _328
REMARK  143  A    between atoms: _328  and  _329
REMARK  144  A    between atoms: _334  and  _336
REMARK  145  A    between atoms: _336  and  _337
REMARK  146  A    between atoms: _336  and  _339
REMARK  147  A    between atoms: _339  and  _340
REMARK  148  A    between atoms: _343  and  _345
REMARK  149  A    between atoms: _345  and  _346
REMARK  150  A    between atoms: _345  and  _348
REMARK  151  A    between atoms: _348  and  _349
REMARK  152  A    between atoms: _352  and  _354
REMARK  153  A    between atoms: _354  and  _355
REMARK  154  A    between atoms: _358  and  _360
REMARK  155  A    between atoms: _360  and  _361
REMARK  156  A    between atoms: _360  and  _363
REMARK  157  A    between atoms: _363  and  _364
REMARK  158  A    between atoms: _367  and  _369
REMARK  159  A    between atoms: _369  and  _370
REMARK  160  A    between atoms: _369  and  _372
REMARK  161  A    between atoms: _372  and  _373
REMARK  162  A    between atoms: _376  and  _378
REMARK  163  A    between atoms: _378  and  _379
REMARK  164  A    between atoms: _378  and  _381
REMARK  165  A    between atoms: _381  and  _382
REMARK  166  A    between atoms: _382  and  _383
REMARK  167  A    between atoms: _383  and  _384
REMARK  168  A    between atoms: _393  and  _395
REMARK  169  A    between atoms: _395  and  _396
REMARK  170  A    between atoms: _395  and  _398
REMARK  171  A    between atoms: _398  and  _399
REMARK  172  A    between atoms: _399  and  _400
REMARK  173  A    between atoms: _405  and  _407
REMARK  174  A    between atoms: _407  and  _408
REMARK  175  A    between atoms: _407  and  _410
REMARK  176  A    between atoms: _410  and  _411
REMARK  177  A    between atoms: _411  and  _412
REMARK  178  A    between atoms: _417  and  _419
REMARK  179  A    between atoms: _419  and  _420
REMARK  180  A    between atoms: _419  and  _422
REMARK  181  A    between atoms: _422  and  _423
REMARK  182  A    between atoms: _433  and  _435
REMARK  183  A    between atoms: _435  and  _436
REMARK  184  A    between atoms: _435  and  _438
REMARK  185  A    between atoms: _438  and  _439
REMARK  186  A    between atoms: _442  and  _444
REMARK  187  A    between atoms: _444  and  _445
REMARK  188  A    between atoms: _444  and  _447
REMARK  189  A    between atoms: _447  and  _448
REMARK  190  A    between atoms: _451  and  _453
REMARK  191  A    between atoms: _453  and  _454
REMARK  192  A    between atoms: _453  and  _456
REMARK  193  A    between atoms: _456  and  _457
REMARK  194  A    between atoms: _457  and  _458
REMARK  195  A    between atoms: _458  and  _459
REMARK  196  A    between atoms: _459  and  _460
REMARK  197  A    between atoms: _464  and  _466
REMARK  198  A    between atoms: _466  and  _467
REMARK  199  A    between atoms: _466  and  _469
REMARK  200  A    between atoms: _469  and  _470
REMARK  201  A    between atoms: _470  and  _471
REMARK  202  A    between atoms: _471  and  _472
REMARK  203  A    between atoms: _481  and  _483
REMARK  204  A    between atoms: _483  and  _484
REMARK  205  A    between atoms: _483  and  _486
REMARK  206  A    between atoms: _486  and  _487
REMARK  207  A    between atoms: _490  and  _492
REMARK  208  A    between atoms: _492  and  _493
REMARK  209  A    between atoms: _492  and  _495
REMARK  210  A    between atoms: _498  and  _500
REMARK  211  A    between atoms: _500  and  _501
REMARK  212  A    between atoms: _500  and  _503
REMARK  213  A    between atoms: _503  and  _504
REMARK  214  A    between atoms: _504  and  _505
REMARK  215  A    between atoms: _508  and  _510
REMARK  216  A    between atoms: _510  and  _511
REMARK  217  A    between atoms: _510  and  _513
REMARK  218  A    between atoms: _515  and  _517
REMARK  219  A    between atoms: _517  and  _518
REMARK  220  A    between atoms: _517  and  _520
REMARK  221  A    between atoms: _520  and  _521
REMARK  222  A    between atoms: _521  and  _522
REMARK  223  A    between atoms: _524  and  _526
REMARK  224  A    between atoms: _526  and  _527
REMARK  225  A    between atoms: _526  and  _529
REMARK  226  A    between atoms: _529  and  _530
REMARK  227  A    between atoms: _532  and  _534
REMARK  228  A    between atoms: _534  and  _535
REMARK  229  A    between atoms: _534  and  _537
REMARK  230  A    between atoms: _537  and  _538
REMARK  231  A    between atoms: _541  and  _543
REMARK  232  A    between atoms: _543  and  _544
REMARK  233  A    between atoms: _543  and  _546
REMARK  234  A    between atoms: _546  and  _547
REMARK  235  A    between atoms: _547  and  _548
REMARK  236  A    between atoms: _548  and  _549
REMARK  237  A    between atoms: _558  and  _560
REMARK  238  A    between atoms: _560  and  _561
REMARK  239  A    between atoms: _560  and  _563
REMARK  240  A    between atoms: _566  and  _568
REMARK  241  A    between atoms: _568  and  _569
REMARK  242  A    between atoms: _568  and  _571
REMARK  243  A    between atoms: _571  and  _572
REMARK  244  A    between atoms: _577  and  _578
REMARK                            x       y       z     vdW  Elec       q    Type
REMARK                         _______ _______ _______ _____ _____    ______ ____
ROOT
ATOM      1  CA  ARG A   3      13.235  21.646   2.395  0.00  0.00    +0.149 C 
ENDROOT
BRANCH   1   4
ATOM      2  C   THR A   2      15.450  20.846   3.012  0.00  0.00    +0.243 C 
ATOM      3  O   THR A   2      15.944  21.987   2.974  0.00  0.00    -0.273 OA
ATOM      4  N   ARG A   3      14.171  20.591   2.744  0.00  0.00    -0.297 N 
ATOM      5  H   ARG A   3      13.832  19.609   2.786  0.00  0.00    +0.150 HD
BRANCH   2   6
ATOM      6  CA  THR A   2      16.300  19.638   3.371  0.00  0.00    +0.176 C 
BRANCH   6   8
ATOM      7  C   SER A   1      17.656  18.474   1.724  0.00  0.00    +0.241 C 
ATOM      8  N   THR A   2      17.433  19.561   2.456  0.00  0.00    -0.295 N 
ATOM      9  H   THR A   2      18.079  20.372   2.375  0.00  0.00    +0.150 HD
ATOM     10  O   SER A   1      16.980  17.447   1.802  0.00  0.00    -0.274 OA
BRANCH   7  11
ATOM     11  CA  SER A   1      18.823  18.540   0.753  0.00  0.00    +0.174 C 
BRANCH  11  12
ATOM     12  N   SER A   1      19.492  17.232   0.716  0.00  0.00    -0.236 NA
ATOM     13  H   SER A   1      19.018  16.443   0.232  0.00  0.00    +0.142 HD
ENDBRANCH  11  12
BRANCH  11  14
ATOM     14  CB  SER A   1      18.293  18.909  -0.624  0.00  0.00    +0.163 C 
BRANCH  14  15
ATOM     15  OG  SER A   1      17.524  20.104  -0.567  0.00  0.00    -0.380 OA
ATOM     16  H   SER A   1      18.091  20.844  -0.234  0.00  0.00    +0.211 HD
ENDBRANCH  14  15
ENDBRANCH  11  14
ENDBRANCH   7  11
ENDBRANCH   6   8
BRANCH   6  17
ATOM     17  CB  THR A   2      16.768  19.740   4.840  0.00  0.00    +0.137 C 
ATOM     18  CG2 THR A   2      15.549  19.789   5.786  0.00  0.00    +0.034 C 
BRANCH  17  19
ATOM     19  OG1 THR A   2      17.585  18.607   5.163  0.00  0.00    -0.382 OA
ATOM     20  HG1 THR A   2      17.884  18.675   6.104  0.00  0.00    +0.210 HD
ENDBRANCH  17  19
ENDBRANCH   6  17
ENDBRANCH   2   6
ENDBRANCH   1   4
BRANCH   1  21
ATOM     21  C   ARG A   3      12.043  21.546   3.334  0.00  0.00    +0.241 C 
ATOM     22  N   VAL A   4      11.776  22.637   4.036  0.00  0.00    -0.297 N 
ATOM     23  H   VAL A   4      12.319  23.505   3.852  0.00  0.00    +0.150 HD
ATOM     24  O   ARG A   3      11.409  20.490   3.447  0.00  0.00    -0.273 OA
BRANCH  22  25
ATOM     25  CA  VAL A   4      10.738  22.650   5.062  0.00  0.00    +0.149 C 
BRANCH  25  26
ATOM     26  C   VAL A   4       9.546  23.466   4.574  0.00  0.00    +0.241 C 
ATOM     27  N   TYR A   5       8.356  22.918   4.809  0.00  0.00    -0.298 N 
ATOM     28  H   TYR A   5       8.325  21.987   5.271  0.00  0.00    +0.150 HD
ATOM     29  O   VAL A   4       9.700  24.543   3.977  0.00  0.00    -0.273 OA
BRANCH  27  30
ATOM     30  CA  TYR A   5       7.101  23.552   4.455  0.00  0.00    +0.141 C 
BRANCH  30  31
ATOM     31  C   TYR A   5       6.252  23.775   5.700  0.00  0.00    +0.227 C 
ATOM     32  O   TYR A   5       6.372  23.044   6.684  0.00  0.00    -0.286 OA
ENDBRANCH  30  31
BRANCH  30  33
ATOM     33  CB  TYR A   5       6.301  22.639   3.502  0.00  0.00    +0.054 C 
BRANCH  33  34
ATOM     34  CG  TYR A   5       6.897  22.451   2.125  0.00  0.00    -0.020 A 
ATOM     35  CD2 TYR A   5       8.031  21.664   1.918  0.00  0.00    -0.001 A 
ATOM     36  CE2 TYR A   5       8.579  21.509   0.632  0.00  0.00    +0.036 A 
ATOM     37  CZ  TYR A   5       7.960  22.125  -0.460  0.00  0.00    +0.134 A 
ATOM     38  CE1 TYR A   5       6.812  22.876  -0.282  0.00  0.00    +0.036 A 
ATOM     39  CD1 TYR A   5       6.294  23.055   1.011  0.00  0.00    -0.001 A 
BRANCH  37  40
ATOM     40  OH  TYR A   5       8.418  21.989  -1.759  0.00  0.00    -0.506 OA
ATOM     41  HH  TYR A   5       9.239  21.435  -1.762  0.00  0.00    +0.292 HD
ENDBRANCH  37  40
ENDBRANCH  33  34
ENDBRANCH  30  33
ENDBRANCH  27  30
ENDBRANCH  25  26
BRANCH  25  42
ATOM     42  CB  VAL A   4      11.275  23.212   6.409  0.00  0.00    +0.027 C 
ATOM     43  CG2 VAL A   4      10.152  23.285   7.462  0.00  0.00    +0.002 C 
ATOM     44  CG1 VAL A   4      12.435  22.378   6.894  0.00  0.00    +0.002 C 
ENDBRANCH  25  42
ENDBRANCH  22  25
ENDBRANCH   1  21
BRANCH   1  45
ATOM     45  CB  ARG A   3      12.844  21.566   0.921  0.00  0.00    +0.033 C 
BRANCH  45  46
ATOM     46  CG  ARG A   3      14.002  22.040   0.000  0.00  0.00    +0.045 C 
BRANCH  46  47
ATOM     47  CD  ARG A   3      13.845  21.527  -1.423  0.00  0.00    +0.174 C 
BRANCH  47  48
ATOM     48  NE  ARG A   3      12.703  22.106  -2.139  0.00  0.00    -0.265 N 
ATOM     49  HE  ARG A   3      11.846  21.523  -2.221  0.00  0.00    +0.259 HD
ATOM     50  CZ  ARG A   3      12.674  23.319  -2.694  0.00  0.00    +0.342 C 
ATOM     51  NH2 ARG A   3      13.696  24.157  -2.568  0.00  0.00    -0.292 N 
ATOM     52 HH21 ARG A   3      14.539  23.872  -2.029  0.00  0.00    +0.255 HD
ATOM     53 HH22 ARG A   3      13.654  25.098  -3.008  0.00  0.00    +0.255 HD
ATOM     54  NH1 ARG A   3      11.587  23.714  -3.355  0.00  0.00    -0.292 N 
ATOM     55 HH11 ARG A   3      10.768  23.078  -3.436  0.00  0.00    +0.255 HD
ATOM     56 HH12 ARG A   3      11.557  24.658  -3.790  0.00  0.00    +0.255 HD
ENDBRANCH  47  48
ENDBRANCH  46  47
ENDBRANCH  45  46
ENDBRANCH   1  45
TORSDOF 22
REMARK  Name = ../refined-set-2016/3hk1/3hk1_pocket.pdb
REMARK  244 active torsions:
REMARK  status: ('A' for Active; 'I' for Inactive)
REMARK    1  A    between atoms: _1  and  _3
REMARK    2  A    between atoms: _3  and  _4
REMARK    3  A    between atoms: _3  and  _6
REMARK    4  A    between atoms: _6  and  _7
REMARK    5  A    between atoms: _10  and  _12
REMARK    6  A    between atoms: _12  and  _13
REMARK    7  A    between atoms: _12  and  _15
REMARK    8  A    between atoms: _18  and  _20
REMARK    9  A    between atoms: _20  and  _21
REMARK   10  A    between atoms: _20  and  _23
REMARK   11  A    between atoms: _23  and  _24
REMARK   12  A    between atoms: _26  and  _28
REMARK   13  A    between atoms: _28  and  _29
REMARK   14  A    between atoms: _28  and  _31
REMARK   15  A    between atoms: _31  and  _32
REMARK   16  A    between atoms: _34  and  _36
REMARK   17  A    between atoms: _36  and  _37
REMARK   18  A    between atoms: _36  and  _39
REMARK   19  A    between atoms: _39  and  _40
REMARK   20  A    between atoms: _46  and  _48
REMARK   21  A    between atoms: _48  and  _49
REMARK   22  A    between atoms: _48  and  _51
REMARK   23  A    between atoms: _51  and  _52
REMARK   24  A    between atoms: _57  and  _58
REMARK   25  A    between atoms: _60  and  _62
REMARK   26  A    between atoms: _62  and  _63
REMARK   27  A    between atoms: _62  and  _65
REMARK   28  A    between atoms: _65  and  _66
REMARK   29  A    between atoms: _66  and  _67
REMARK   30  A    between atoms: _69  and  _71
REMARK   31  A    between atoms: _71  and  _72
REMARK   32  A    between atoms: _71  and  _74
REMARK   33  A    between atoms: _74  and  _75
REMARK   34  A    between atoms: _75  and  _76
REMARK   35  A    between atoms: _76  and  _77
REMARK   36  A    between atoms: _77  and  _78
REMARK   37  A    between atoms: _82  and  _84
REMARK   38  A    between atoms: _84  and  _85
REMARK   39  A    between atoms: _84  and  _87
REMARK   40  A    between atoms: _87  and  _88
REMARK   41  A    between atoms: _88  and  _89
REMARK   42  A    between atoms: _92  and  _94
REMARK   43  A    between atoms: _94  and  _95
REMARK   44  A    between atoms: _94  and  _97
REMARK   45  A    between atoms: _100  and  _102
REMARK   46  A    between atoms: _102  and  _103
REMARK   47  A    between atoms: _105  and  _107
REMARK   48  A    between atoms: _107  and  _108
REMARK   49  A    between atoms: _107  and  _110
REMARK   50  A    between atoms: _113  and  _115
REMARK   51  A    between atoms: _115  and  _116
REMARK   52  A    between atoms: _118  and  _120
REMARK   53  A    between atoms: _120  and  _121
REMARK   54  A    between atoms: _124  and  _126
REMARK   55  A    between atoms: _126  and  _127
REMARK   56  A    between atoms: _126  and  _129
REMARK   57  A    between atoms: _129  and  _130
REMARK   58  A    between atoms: _133  and  _135
REMARK   59  A    between atoms: _135  and  _136
REMARK   60  A    between atoms: _135  and  _138
REMARK   61  A    between atoms: _138  and  _139
REMARK   62  A    between atoms: _139  and  _140
REMARK   63  A    between atoms: _140  and  _141
REMARK   64  A    between atoms: _150  and  _152
REMARK   65  A    between atoms: _152  and  _153
REMARK   66  A    between atoms: _152  and  _155
REMARK   67  A    between atoms: _155  and  _156
REMARK   68  A    between atoms: _156  and  _157
REMARK   69  A    between atoms: _157  and  _158
REMARK   70  A    between atoms: _158  and  _159
REMARK   71  A    between atoms: _163  and  _165
REMARK   72  A    between atoms: _165  and  _166
REMARK   73  A    between atoms: _165  and  _168
REMARK   74  A    between atoms: _171  and  _173
REMARK   75  A    between atoms: _173  and  _174
REMARK   76  A    between atoms: _177  and  _179
REMARK   77  A    between atoms: _179  and  _180
REMARK   78  A    between atoms: _182  and  _184
REMARK   79  A    between atoms: _184  and  _185
REMARK   80  A    between atoms: _184  and  _187
REMARK   81  A    between atoms: _187  and  _188
REMARK   82  A    between atoms: _188  and  _189
REMARK   83  A    between atoms: _191  and  _193
REMARK   84  A    between atoms: _193  and  _194
REMARK   85  A    between atoms: _197  and  _199
REMARK   86  A    between atoms: _199  and  _200
REMARK   87  A    between atoms: _199  and  _202
REMARK   88  A    between atoms: _202  and  _203
REMARK   89  A    between atoms: _203  and  _204
REMARK   90  A    between atoms: _204  and  _205
REMARK   91  A    between atoms: _205  and  _206
REMARK   92  A    between atoms: _211  and  _212
REMARK   93  A    between atoms: _217  and  _219
REMARK   94  A    between atoms: _219  and  _220
REMARK   95  A    between atoms: _219  and  _222
REMARK   96  A    between atoms: _222  and  _223
REMARK   97  A    between atoms: _228  and  _230
REMARK   98  A    between atoms: _230  and  _231
REMARK   99  A    between atoms: _230  and  _233
REMARK  100  A    between atoms: _233  and  _234
REMARK  101  A    between atoms: _234  and  _235
REMARK  102  A    between atoms: _237  and  _239
REMARK  103  A    between atoms: _239  and  _240
REMARK  104  A    between atoms: _239  and  _242
REMARK  105  A    between atoms: _242  and  _243
REMARK  106  A    between atoms: _246  and  _248
REMARK  107  A    between atoms: _248  and  _249
REMARK  108  A    between atoms: _248  and  _251
REMARK  109  A    between atoms: _251  and  _252
REMARK  110  A    between atoms: _252  and  _253
REMARK  111  A    between atoms: _253  and  _254
REMARK  112  A    between atoms: _263  and  _265
REMARK  113  A    between atoms: _265  and  _266
REMARK  114  A    between atoms: _265  and  _268
REMARK  115  A    between atoms: _268  and  _269
REMARK  116  A    between atoms: _271  and  _273
REMARK  117  A    between atoms: _273  and  _274
REMARK  118  A    between atoms: _273  and  _276
REMARK  119  A    between atoms: _276  and  _277
REMARK  120  A    between atoms: _277  and  _278
REMARK  121  A    between atoms: _281  and  _283
REMARK  122  A    between atoms: _283  and  _284
REMARK  123  A    between atoms: _283  and  _286
REMARK  124  A    between atoms: _286  and  _287
REMARK  125  A    between atoms: _289  and  _291
REMARK  126  A    between atoms: _291  and  _292
REMARK  127  A    between atoms: _291  and  _294
REMARK  128  A    between atoms: _294  and  _295
REMARK  129  A    between atoms: _298  and  _300
REMARK  130  A    between atoms: _300  and  _301
REMARK  131  A    between atoms: _300  and  _303
REMARK  132  A    between atoms: _303  and  _304
REMARK  133  A    between atoms: _310  and  _312
REMARK  134  A    between atoms: _312  and  _313
REMARK  135  A    between atoms: _312  and  _315
REMARK  136  A    between atoms: _315  and  _316
REMARK  137  A    between atoms: _316  and  _317
REMARK  138  A    between atoms: _317  and  _318
REMARK  139  A    between atoms: _318  and  _319
REMARK  140  A    between atoms: _323  and  _325
REMARK  141  A    between atoms: _325  and  _326
REMARK  142  A    between atoms: _325  and  _328
REMARK  143  A    between atoms: _328  and  _329
REMARK  144  A    between atoms: _334  and  _336
REMARK  145  A    between atoms: _336  and  _337
REMARK  146  A    between atoms: _336  and  _339
REMARK  147  A    between atoms: _339  and  _340
REMARK  148  A    between atoms: _343  and  _345
REMARK  149  A    between atoms: _345  and  _346
REMARK  150  A    between atoms: _345  and  _348
REMARK  151  A    between atoms: _348  and  _349
REMARK  152  A    between atoms: _352  and  _354
REMARK  153  A    between atoms: _354  and  _355
REMARK  154  A    between atoms: _358  and  _360
REMARK  155  A    between atoms: _360  and  _361
REMARK  156  A    between atoms: _360  and  _363
REMARK  157  A    between atoms: _363  and  _364
REMARK  158  A    between atoms: _367  and  _369
REMARK  159  A    between atoms: _369  and  _370
REMARK  160  A    between atoms: _369  and  _372
REMARK  161  A    between atoms: _372  and  _373
REMARK  162  A    between atoms: _376  and  _378
REMARK  163  A    between atoms: _378  and  _379
REMARK  164  A    between atoms: _378  and  _381
REMARK  165  A    between atoms: _381  and  _382
REMARK  166  A    between atoms: _382  and  _383
REMARK  167  A    between atoms: _383  and  _384
REMARK  168  A    between atoms: _393  and  _395
REMARK  169  A    between atoms: _395  and  _396
REMARK  170  A    between atoms: _395  and  _398
REMARK  171  A    between atoms: _398  and  _399
REMARK  172  A    between atoms: _399  and  _400
REMARK  173  A    between atoms: _405  and  _407
REMARK  174  A    between atoms: _407  and  _408
REMARK  175  A    between atoms: _407  and  _410
REMARK  176  A    between atoms: _410  and  _411
REMARK  177  A    between atoms: _411  and  _412
REMARK  178  A    between atoms: _417  and  _419
REMARK  179  A    between atoms: _419  and  _420
REMARK  180  A    between atoms: _419  and  _422
REMARK  181  A    between atoms: _422  and  _423
REMARK  182  A    between atoms: _433  and  _435
REMARK  183  A    between atoms: _435  and  _436
REMARK  184  A    between atoms: _435  and  _438
REMARK  185  A    between atoms: _438  and  _439
REMARK  186  A    between atoms: _442  and  _444
REMARK  187  A    between atoms: _444  and  _445
REMARK  188  A    between atoms: _444  and  _447
REMARK  189  A    between atoms: _447  and  _448
REMARK  190  A    between atoms: _451  and  _453
REMARK  191  A    between atoms: _453  and  _454
REMARK  192  A    between atoms: _453  and  _456
REMARK  193  A    between atoms: _456  and  _457
REMARK  194  A    between atoms: _457  and  _458
REMARK  195  A    between atoms: _458  and  _459
REMARK  196  A    between atoms: _459  and  _460
REMARK  197  A    between atoms: _464  and  _466
REMARK  198  A    between atoms: _466  and  _467
REMARK  199  A    between atoms: _466  and  _469
REMARK  200  A    between atoms: _469  and  _470
REMARK  201  A    between atoms: _470  and  _471
REMARK  202  A    between atoms: _471  and  _472
REMARK  203  A    between atoms: _481  and  _483
REMARK  204  A    between atoms: _483  and  _484
REMARK  205  A    between atoms: _483  and  _486
REMARK  206  A    between atoms: _486  and  _487
REMARK  207  A    between atoms: _490  and  _492
REMARK  208  A    between atoms: _492  and  _493
REMARK  209  A    between atoms: _492  and  _495
REMARK  210  A    between atoms: _498  and  _500
REMARK  211  A    between atoms: _500  and  _501
REMARK  212  A    between atoms: _500  and  _503
REMARK  213  A    between atoms: _503  and  _504
REMARK  214  A    between atoms: _504  and  _505
REMARK  215  A    between atoms: _508  and  _510
REMARK  216  A    between atoms: _510  and  _511
REMARK  217  A    between atoms: _510  and  _513
REMARK  218  A    between atoms: _515  and  _517
REMARK  219  A    between atoms: _517  and  _518
REMARK  220  A    between atoms: _517  and  _520
REMARK  221  A    between atoms: _520  and  _521
REMARK  222  A    between atoms: _521  and  _522
REMARK  223  A    between atoms: _524  and  _526
REMARK  224  A    between atoms: _526  and  _527
REMARK  225  A    between atoms: _526  and  _529
REMARK  226  A    between atoms: _529  and  _530
REMARK  227  A    between atoms: _532  and  _534
REMARK  228  A    between atoms: _534  and  _535
REMARK  229  A    between atoms: _534  and  _537
REMARK  230  A    between atoms: _537  and  _538
REMARK  231  A    between atoms: _541  and  _543
REMARK  232  A    between atoms: _543  and  _544
REMARK  233  A    between atoms: _543  and  _546
REMARK  234  A    between atoms: _546  and  _547
REMARK  235  A    between atoms: _547  and  _548
REMARK  236  A    between atoms: _548  and  _549
REMARK  237  A    between atoms: _558  and  _560
REMARK  238  A    between atoms: _560  and  _561
REMARK  239  A    between atoms: _560  and  _563
REMARK  240  A    between atoms: _566  and  _568
REMARK  241  A    between atoms: _568  and  _569
REMARK  242  A    between atoms: _568  and  _571
REMARK  243  A    between atoms: _571  and  _572
REMARK  244  A    between atoms: _577  and  _578
REMARK                            x       y       z     vdW  Elec       q    Type
REMARK                         _______ _______ _______ _____ _____    ______ ____
ROOT
ATOM      1  O   HOH     1       6.250  24.944 -16.877  0.00  0.00    +0.000 OA
ENDROOT
TORSDOF 0
REMARK  Name = ../refined-set-2016/3hk1/3hk1_pocket.pdb
REMARK  244 active torsions:
REMARK  status: ('A' for Active; 'I' for Inactive)
REMARK    1  A    between atoms: _1  and  _3
REMARK    2  A    between atoms: _3  and  _4
REMARK    3  A    between atoms: _3  and  _6
REMARK    4  A    between atoms: _6  and  _7
REMARK    5  A    between atoms: _10  and  _12
REMARK    6  A    between atoms: _12  and  _13
REMARK    7  A    between atoms: _12  and  _15
REMARK    8  A    between atoms: _18  and  _20
REMARK    9  A    between atoms: _20  and  _21
REMARK   10  A    between atoms: _20  and  _23
REMARK   11  A    between atoms: _23  and  _24
REMARK   12  A    between atoms: _26  and  _28
REMARK   13  A    between atoms: _28  and  _29
REMARK   14  A    between atoms: _28  and  _31
REMARK   15  A    between atoms: _31  and  _32
REMARK   16  A    between atoms: _34  and  _36
REMARK   17  A    between atoms: _36  and  _37
REMARK   18  A    between atoms: _36  and  _39
REMARK   19  A    between atoms: _39  and  _40
REMARK   20  A    between atoms: _46  and  _48
REMARK   21  A    between atoms: _48  and  _49
REMARK   22  A    between atoms: _48  and  _51
REMARK   23  A    between atoms: _51  and  _52
REMARK   24  A    between atoms: _57  and  _58
REMARK   25  A    between atoms: _60  and  _62
REMARK   26  A    between atoms: _62  and  _63
REMARK   27  A    between atoms: _62  and  _65
REMARK   28  A    between atoms: _65  and  _66
REMARK   29  A    between atoms: _66  and  _67
REMARK   30  A    between atoms: _69  and  _71
REMARK   31  A    between atoms: _71  and  _72
REMARK   32  A    between atoms: _71  and  _74
REMARK   33  A    between atoms: _74  and  _75
REMARK   34  A    between atoms: _75  and  _76
REMARK   35  A    between atoms: _76  and  _77
REMARK   36  A    between atoms: _77  and  _78
REMARK   37  A    between atoms: _82  and  _84
REMARK   38  A    between atoms: _84  and  _85
REMARK   39  A    between atoms: _84  and  _87
REMARK   40  A    between atoms: _87  and  _88
REMARK   41  A    between atoms: _88  and  _89
REMARK   42  A    between atoms: _92  and  _94
REMARK   43  A    between atoms: _94  and  _95
REMARK   44  A    between atoms: _94  and  _97
REMARK   45  A    between atoms: _100  and  _102
REMARK   46  A    between atoms: _102  and  _103
REMARK   47  A    between atoms: _105  and  _107
REMARK   48  A    between atoms: _107  and  _108
REMARK   49  A    between atoms: _107  and  _110
REMARK   50  A    between atoms: _113  and  _115
REMARK   51  A    between atoms: _115  and  _116
REMARK   52  A    between atoms: _118  and  _120
REMARK   53  A    between atoms: _120  and  _121
REMARK   54  A    between atoms: _124  and  _126
REMARK   55  A    between atoms: _126  and  _127
REMARK   56  A    between atoms: _126  and  _129
REMARK   57  A    between atoms: _129  and  _130
REMARK   58  A    between atoms: _133  and  _135
REMARK   59  A    between atoms: _135  and  _136
REMARK   60  A    between atoms: _135  and  _138
REMARK   61  A    between atoms: _138  and  _139
REMARK   62  A    between atoms: _139  and  _140
REMARK   63  A    between atoms: _140  and  _141
REMARK   64  A    between atoms: _150  and  _152
REMARK   65  A    between atoms: _152  and  _153
REMARK   66  A    between atoms: _152  and  _155
REMARK   67  A    between atoms: _155  and  _156
REMARK   68  A    between atoms: _156  and  _157
REMARK   69  A    between atoms: _157  and  _158
REMARK   70  A    between atoms: _158  and  _159
REMARK   71  A    between atoms: _163  and  _165
REMARK   72  A    between atoms: _165  and  _166
REMARK   73  A    between atoms: _165  and  _168
REMARK   74  A    between atoms: _171  and  _173
REMARK   75  A    between atoms: _173  and  _174
REMARK   76  A    between atoms: _177  and  _179
REMARK   77  A    between atoms: _179  and  _180
REMARK   78  A    between atoms: _182  and  _184
REMARK   79  A    between atoms: _184  and  _185
REMARK   80  A    between atoms: _184  and  _187
REMARK   81  A    between atoms: _187  and  _188
REMARK   82  A    between atoms: _188  and  _189
REMARK   83  A    between atoms: _191  and  _193
REMARK   84  A    between atoms: _193  and  _194
REMARK   85  A    between atoms: _197  and  _199
REMARK   86  A    between atoms: _199  and  _200
REMARK   87  A    between atoms: _199  and  _202
REMARK   88  A    between atoms: _202  and  _203
REMARK   89  A    between atoms: _203  and  _204
REMARK   90  A    between atoms: _204  and  _205
REMARK   91  A    between atoms: _205  and  _206
REMARK   92  A    between atoms: _211  and  _212
REMARK   93  A    between atoms: _217  and  _219
REMARK   94  A    between atoms: _219  and  _220
REMARK   95  A    between atoms: _219  and  _222
REMARK   96  A    between atoms: _222  and  _223
REMARK   97  A    between atoms: _228  and  _230
REMARK   98  A    between atoms: _230  and  _231
REMARK   99  A    between atoms: _230  and  _233
REMARK  100  A    between atoms: _233  and  _234
REMARK  101  A    between atoms: _234  and  _235
REMARK  102  A    between atoms: _237  and  _239
REMARK  103  A    between atoms: _239  and  _240
REMARK  104  A    between atoms: _239  and  _242
REMARK  105  A    between atoms: _242  and  _243
REMARK  106  A    between atoms: _246  and  _248
REMARK  107  A    between atoms: _248  and  _249
REMARK  108  A    between atoms: _248  and  _251
REMARK  109  A    between atoms: _251  and  _252
REMARK  110  A    between atoms: _252  and  _253
REMARK  111  A    between atoms: _253  and  _254
REMARK  112  A    between atoms: _263  and  _265
REMARK  113  A    between atoms: _265  and  _266
REMARK  114  A    between atoms: _265  and  _268
REMARK  115  A    between atoms: _268  and  _269
REMARK  116  A    between atoms: _271  and  _273
REMARK  117  A    between atoms: _273  and  _274
REMARK  118  A    between atoms: _273  and  _276
REMARK  119  A    between atoms: _276  and  _277
REMARK  120  A    between atoms: _277  and  _278
REMARK  121  A    between atoms: _281  and  _283
REMARK  122  A    between atoms: _283  and  _284
REMARK  123  A    between atoms: _283  and  _286
REMARK  124  A    between atoms: _286  and  _287
REMARK  125  A    between atoms: _289  and  _291
REMARK  126  A    between atoms: _291  and  _292
REMARK  127  A    between atoms: _291  and  _294
REMARK  128  A    between atoms: _294  and  _295
REMARK  129  A    between atoms: _298  and  _300
REMARK  130  A    between atoms: _300  and  _301
REMARK  131  A    between atoms: _300  and  _303
REMARK  132  A    between atoms: _303  and  _304
REMARK  133  A    between atoms: _310  and  _312
REMARK  134  A    between atoms: _312  and  _313
REMARK  135  A    between atoms: _312  and  _315
REMARK  136  A    between atoms: _315  and  _316
REMARK  137  A    between atoms: _316  and  _317
REMARK  138  A    between atoms: _317  and  _318
REMARK  139  A    between atoms: _318  and  _319
REMARK  140  A    between atoms: _323  and  _325
REMARK  141  A    between atoms: _325  and  _326
REMARK  142  A    between atoms: _325  and  _328
REMARK  143  A    between atoms: _328  and  _329
REMARK  144  A    between atoms: _334  and  _336
REMARK  145  A    between atoms: _336  and  _337
REMARK  146  A    between atoms: _336  and  _339
REMARK  147  A    between atoms: _339  and  _340
REMARK  148  A    between atoms: _343  and  _345
REMARK  149  A    between atoms: _345  and  _346
REMARK  150  A    between atoms: _345  and  _348
REMARK  151  A    between atoms: _348  and  _349
REMARK  152  A    between atoms: _352  and  _354
REMARK  153  A    between atoms: _354  and  _355
REMARK  154  A    between atoms: _358  and  _360
REMARK  155  A    between atoms: _360  and  _361
REMARK  156  A    between atoms: _360  and  _363
REMARK  157  A    between atoms: _363  and  _364
REMARK  158  A    between atoms: _367  and  _369
REMARK  159  A    between atoms: _369  and  _370
REMARK  160  A    between atoms: _369  and  _372
REMARK  161  A    between atoms: _372  and  _373
REMARK  162  A    between atoms: _376  and  _378
REMARK  163  A    between atoms: _378  and  _379
REMARK  164  A    between atoms: _378  and  _381
REMARK  165  A    between atoms: _381  and  _382
REMARK  166  A    between atoms: _382  and  _383
REMARK  167  A    between atoms: _383  and  _384
REMARK  168  A    between atoms: _393  and  _395
REMARK  169  A    between atoms: _395  and  _396
REMARK  170  A    between atoms: _395  and  _398
REMARK  171  A    between atoms: _398  and  _399
REMARK  172  A    between atoms: _399  and  _400
REMARK  173  A    between atoms: _405  and  _407
REMARK  174  A    between atoms: _407  and  _408
REMARK  175  A    between atoms: _407  and  _410
REMARK  176  A    between atoms: _410  and  _411
REMARK  177  A    between atoms: _411  and  _412
REMARK  178  A    between atoms: _417  and  _419
REMARK  179  A    between atoms: _419  and  _420
REMARK  180  A    between atoms: _419  and  _422
REMARK  181  A    between atoms: _422  and  _423
REMARK  182  A    between atoms: _433  and  _435
REMARK  183  A    between atoms: _435  and  _436
REMARK  184  A    between atoms: _435  and  _438
REMARK  185  A    between atoms: _438  and  _439
REMARK  186  A    between atoms: _442  and  _444
REMARK  187  A    between atoms: _444  and  _445
REMARK  188  A    between atoms: _444  and  _447
REMARK  189  A    between atoms: _447  and  _448
REMARK  190  A    between atoms: _451  and  _453
REMARK  191  A    between atoms: _453  and  _454
REMARK  192  A    between atoms: _453  and  _456
REMARK  193  A    between atoms: _456  and  _457
REMARK  194  A    between atoms: _457  and  _458
REMARK  195  A    between atoms: _458  and  _459
REMARK  196  A    between atoms: _459  and  _460
REMARK  197  A    between atoms: _464  and  _466
REMARK  198  A    between atoms: _466  and  _467
REMARK  199  A    between atoms: _466  and  _469
REMARK  200  A    between atoms: _469  and  _470
REMARK  201  A    between atoms: _470  and  _471
REMARK  202  A    between atoms: _471  and  _472
REMARK  203  A    between atoms: _481  and  _483
REMARK  204  A    between atoms: _483  and  _484
REMARK  205  A    between atoms: _483  and  _486
REMARK  206  A    between atoms: _486  and  _487
REMARK  207  A    between atoms: _490  and  _492
REMARK  208  A    between atoms: _492  and  _493
REMARK  209  A    between atoms: _492  and  _495
REMARK  210  A    between atoms: _498  and  _500
REMARK  211  A    between atoms: _500  and  _501
REMARK  212  A    between atoms: _500  and  _503
REMARK  213  A    between atoms: _503  and  _504
REMARK  214  A    between atoms: _504  and  _505
REMARK  215  A    between atoms: _508  and  _510
REMARK  216  A    between atoms: _510  and  _511
REMARK  217  A    between atoms: _510  and  _513
REMARK  218  A    between atoms: _515  and  _517
REMARK  219  A    between atoms: _517  and  _518
REMARK  220  A    between atoms: _517  and  _520
REMARK  221  A    between atoms: _520  and  _521
REMARK  222  A    between atoms: _521  and  _522
REMARK  223  A    between atoms: _524  and  _526
REMARK  224  A    between atoms: _526  and  _527
REMARK  225  A    between atoms: _526  and  _529
REMARK  226  A    between atoms: _529  and  _530
REMARK  227  A    between atoms: _532  and  _534
REMARK  228  A    between atoms: _534  and  _535
REMARK  229  A    between atoms: _534  and  _537
REMARK  230  A    between atoms: _537  and  _538
REMARK  231  A    between atoms: _541  and  _543
REMARK  232  A    between atoms: _543  and  _544
REMARK  233  A    between atoms: _543  and  _546
REMARK  234  A    between atoms: _546  and  _547
REMARK  235  A    between atoms: _547  and  _548
REMARK  236  A    between atoms: _548  and  _549
REMARK  237  A    between atoms: _558  and  _560
REMARK  238  A    between atoms: _560  and  _561
REMARK  239  A    between atoms: _560  and  _563
REMARK  240  A    between atoms: _566  and  _568
REMARK  241  A    between atoms: _568  and  _569
REMARK  242  A    between atoms: _568  and  _571
REMARK  243  A    between atoms: _571  and  _572
REMARK  244  A    between atoms: _577  and  _578
REMARK                            x       y       z     vdW  Elec       q    Type
REMARK                         _______ _______ _______ _____ _____    ______ ____
ROOT
ATOM      1  O   HOH     1      12.698  15.414  -5.817  0.00  0.00    +0.000 OA
ENDROOT
TORSDOF 0
REMARK  Name = ../refined-set-2016/3hk1/3hk1_pocket.pdb
REMARK  244 active torsions:
REMARK  status: ('A' for Active; 'I' for Inactive)
REMARK    1  A    between atoms: _1  and  _3
REMARK    2  A    between atoms: _3  and  _4
REMARK    3  A    between atoms: _3  and  _6
REMARK    4  A    between atoms: _6  and  _7
REMARK    5  A    between atoms: _10  and  _12
REMARK    6  A    between atoms: _12  and  _13
REMARK    7  A    between atoms: _12  and  _15
REMARK    8  A    between atoms: _18  and  _20
REMARK    9  A    between atoms: _20  and  _21
REMARK   10  A    between atoms: _20  and  _23
REMARK   11  A    between atoms: _23  and  _24
REMARK   12  A    between atoms: _26  and  _28
REMARK   13  A    between atoms: _28  and  _29
REMARK   14  A    between atoms: _28  and  _31
REMARK   15  A    between atoms: _31  and  _32
REMARK   16  A    between atoms: _34  and  _36
REMARK   17  A    between atoms: _36  and  _37
REMARK   18  A    between atoms: _36  and  _39
REMARK   19  A    between atoms: _39  and  _40
REMARK   20  A    between atoms: _46  and  _48
REMARK   21  A    between atoms: _48  and  _49
REMARK   22  A    between atoms: _48  and  _51
REMARK   23  A    between atoms: _51  and  _52
REMARK   24  A    between atoms: _57  and  _58
REMARK   25  A    between atoms: _60  and  _62
REMARK   26  A    between atoms: _62  and  _63
REMARK   27  A    between atoms: _62  and  _65
REMARK   28  A    between atoms: _65  and  _66
REMARK   29  A    between atoms: _66  and  _67
REMARK   30  A    between atoms: _69  and  _71
REMARK   31  A    between atoms: _71  and  _72
REMARK   32  A    between atoms: _71  and  _74
REMARK   33  A    between atoms: _74  and  _75
REMARK   34  A    between atoms: _75  and  _76
REMARK   35  A    between atoms: _76  and  _77
REMARK   36  A    between atoms: _77  and  _78
REMARK   37  A    between atoms: _82  and  _84
REMARK   38  A    between atoms: _84  and  _85
REMARK   39  A    between atoms: _84  and  _87
REMARK   40  A    between atoms: _87  and  _88
REMARK   41  A    between atoms: _88  and  _89
REMARK   42  A    between atoms: _92  and  _94
REMARK   43  A    between atoms: _94  and  _95
REMARK   44  A    between atoms: _94  and  _97
REMARK   45  A    between atoms: _100  and  _102
REMARK   46  A    between atoms: _102  and  _103
REMARK   47  A    between atoms: _105  and  _107
REMARK   48  A    between atoms: _107  and  _108
REMARK   49  A    between atoms: _107  and  _110
REMARK   50  A    between atoms: _113  and  _115
REMARK   51  A    between atoms: _115  and  _116
REMARK   52  A    between atoms: _118  and  _120
REMARK   53  A    between atoms: _120  and  _121
REMARK   54  A    between atoms: _124  and  _126
REMARK   55  A    between atoms: _126  and  _127
REMARK   56  A    between atoms: _126  and  _129
REMARK   57  A    between atoms: _129  and  _130
REMARK   58  A    between atoms: _133  and  _135
REMARK   59  A    between atoms: _135  and  _136
REMARK   60  A    between atoms: _135  and  _138
REMARK   61  A    between atoms: _138  and  _139
REMARK   62  A    between atoms: _139  and  _140
REMARK   63  A    between atoms: _140  and  _141
REMARK   64  A    between atoms: _150  and  _152
REMARK   65  A    between atoms: _152  and  _153
REMARK   66  A    between atoms: _152  and  _155
REMARK   67  A    between atoms: _155  and  _156
REMARK   68  A    between atoms: _156  and  _157
REMARK   69  A    between atoms: _157  and  _158
REMARK   70  A    between atoms: _158  and  _159
REMARK   71  A    between atoms: _163  and  _165
REMARK   72  A    between atoms: _165  and  _166
REMARK   73  A    between atoms: _165  and  _168
REMARK   74  A    between atoms: _171  and  _173
REMARK   75  A    between atoms: _173  and  _174
REMARK   76  A    between atoms: _177  and  _179
REMARK   77  A    between atoms: _179  and  _180
REMARK   78  A    between atoms: _182  and  _184
REMARK   79  A    between atoms: _184  and  _185
REMARK   80  A    between atoms: _184  and  _187
REMARK   81  A    between atoms: _187  and  _188
REMARK   82  A    between atoms: _188  and  _189
REMARK   83  A    between atoms: _191  and  _193
REMARK   84  A    between atoms: _193  and  _194
REMARK   85  A    between atoms: _197  and  _199
REMARK   86  A    between atoms: _199  and  _200
REMARK   87  A    between atoms: _199  and  _202
REMARK   88  A    between atoms: _202  and  _203
REMARK   89  A    between atoms: _203  and  _204
REMARK   90  A    between atoms: _204  and  _205
REMARK   91  A    between atoms: _205  and  _206
REMARK   92  A    between atoms: _211  and  _212
REMARK   93  A    between atoms: _217  and  _219
REMARK   94  A    between atoms: _219  and  _220
REMARK   95  A    between atoms: _219  and  _222
REMARK   96  A    between atoms: _222  and  _223
REMARK   97  A    between atoms: _228  and  _230
REMARK   98  A    between atoms: _230  and  _231
REMARK   99  A    between atoms: _230  and  _233
REMARK  100  A    between atoms: _233  and  _234
REMARK  101  A    between atoms: _234  and  _235
REMARK  102  A    between atoms: _237  and  _239
REMARK  103  A    between atoms: _239  and  _240
REMARK  104  A    between atoms: _239  and  _242
REMARK  105  A    between atoms: _242  and  _243
REMARK  106  A    between atoms: _246  and  _248
REMARK  107  A    between atoms: _248  and  _249
REMARK  108  A    between atoms: _248  and  _251
REMARK  109  A    between atoms: _251  and  _252
REMARK  110  A    between atoms: _252  and  _253
REMARK  111  A    between atoms: _253  and  _254
REMARK  112  A    between atoms: _263  and  _265
REMARK  113  A    between atoms: _265  and  _266
REMARK  114  A    between atoms: _265  and  _268
REMARK  115  A    between atoms: _268  and  _269
REMARK  116  A    between atoms: _271  and  _273
REMARK  117  A    between atoms: _273  and  _274
REMARK  118  A    between atoms: _273  and  _276
REMARK  119  A    between atoms: _276  and  _277
REMARK  120  A    between atoms: _277  and  _278
REMARK  121  A    between atoms: _281  and  _283
REMARK  122  A    between atoms: _283  and  _284
REMARK  123  A    between atoms: _283  and  _286
REMARK  124  A    between atoms: _286  and  _287
REMARK  125  A    between atoms: _289  and  _291
REMARK  126  A    between atoms: _291  and  _292
REMARK  127  A    between atoms: _291  and  _294
REMARK  128  A    between atoms: _294  and  _295
REMARK  129  A    between atoms: _298  and  _300
REMARK  130  A    between atoms: _300  and  _301
REMARK  131  A    between atoms: _300  and  _303
REMARK  132  A    between atoms: _303  and  _304
REMARK  133  A    between atoms: _310  and  _312
REMARK  134  A    between atoms: _312  and  _313
REMARK  135  A    between atoms: _312  and  _315
REMARK  136  A    between atoms: _315  and  _316
REMARK  137  A    between atoms: _316  and  _317
REMARK  138  A    between atoms: _317  and  _318
REMARK  139  A    between atoms: _318  and  _319
REMARK  140  A    between atoms: _323  and  _325
REMARK  141  A    between atoms: _325  and  _326
REMARK  142  A    between atoms: _325  and  _328
REMARK  143  A    between atoms: _328  and  _329
REMARK  144  A    between atoms: _334  and  _336
REMARK  145  A    between atoms: _336  and  _337
REMARK  146  A    between atoms: _336  and  _339
REMARK  147  A    between atoms: _339  and  _340
REMARK  148  A    between atoms: _343  and  _345
REMARK  149  A    between atoms: _345  and  _346
REMARK  150  A    between atoms: _345  and  _348
REMARK  151  A    between atoms: _348  and  _349
REMARK  152  A    between atoms: _352  and  _354
REMARK  153  A    between atoms: _354  and  _355
REMARK  154  A    between atoms: _358  and  _360
REMARK  155  A    between atoms: _360  and  _361
REMARK  156  A    between atoms: _360  and  _363
REMARK  157  A    between atoms: _363  and  _364
REMARK  158  A    between atoms: _367  and  _369
REMARK  159  A    between atoms: _369  and  _370
REMARK  160  A    between atoms: _369  and  _372
REMARK  161  A    between atoms: _372  and  _373
REMARK  162  A    between atoms: _376  and  _378
REMARK  163  A    between atoms: _378  and  _379
REMARK  164  A    between atoms: _378  and  _381
REMARK  165  A    between atoms: _381  and  _382
REMARK  166  A    between atoms: _382  and  _383
REMARK  167  A    between atoms: _383  and  _384
REMARK  168  A    between atoms: _393  and  _395
REMARK  169  A    between atoms: _395  and  _396
REMARK  170  A    between atoms: _395  and  _398
REMARK  171  A    between atoms: _398  and  _399
REMARK  172  A    between atoms: _399  and  _400
REMARK  173  A    between atoms: _405  and  _407
REMARK  174  A    between atoms: _407  and  _408
REMARK  175  A    between atoms: _407  and  _410
REMARK  176  A    between atoms: _410  and  _411
REMARK  177  A    between atoms: _411  and  _412
REMARK  178  A    between atoms: _417  and  _419
REMARK  179  A    between atoms: _419  and  _420
REMARK  180  A    between atoms: _419  and  _422
REMARK  181  A    between atoms: _422  and  _423
REMARK  182  A    between atoms: _433  and  _435
REMARK  183  A    between atoms: _435  and  _436
REMARK  184  A    between atoms: _435  and  _438
REMARK  185  A    between atoms: _438  and  _439
REMARK  186  A    between atoms: _442  and  _444
REMARK  187  A    between atoms: _444  and  _445
REMARK  188  A    between atoms: _444  and  _447
REMARK  189  A    between atoms: _447  and  _448
REMARK  190  A    between atoms: _451  and  _453
REMARK  191  A    between atoms: _453  and  _454
REMARK  192  A    between atoms: _453  and  _456
REMARK  193  A    between atoms: _456  and  _457
REMARK  194  A    between atoms: _457  and  _458
REMARK  195  A    between atoms: _458  and  _459
REMARK  196  A    between atoms: _459  and  _460
REMARK  197  A    between atoms: _464  and  _466
REMARK  198  A    between atoms: _466  and  _467
REMARK  199  A    between atoms: _466  and  _469
REMARK  200  A    between atoms: _469  and  _470
REMARK  201  A    between atoms: _470  and  _471
REMARK  202  A    between atoms: _471  and  _472
REMARK  203  A    between atoms: _481  and  _483
REMARK  204  A    between atoms: _483  and  _484
REMARK  205  A    between atoms: _483  and  _486
REMARK  206  A    between atoms: _486  and  _487
REMARK  207  A    between atoms: _490  and  _492
REMARK  208  A    between atoms: _492  and  _493
REMARK  209  A    between atoms: _492  and  _495
REMARK  210  A    between atoms: _498  and  _500
REMARK  211  A    between atoms: _500  and  _501
REMARK  212  A    between atoms: _500  and  _503
REMARK  213  A    between atoms: _503  and  _504
REMARK  214  A    between atoms: _504  and  _505
REMARK  215  A    between atoms: _508  and  _510
REMARK  216  A    between atoms: _510  and  _511
REMARK  217  A    between atoms: _510  and  _513
REMARK  218  A    between atoms: _515  and  _517
REMARK  219  A    between atoms: _517  and  _518
REMARK  220  A    between atoms: _517  and  _520
REMARK  221  A    between atoms: _520  and  _521
REMARK  222  A    between atoms: _521  and  _522
REMARK  223  A    between atoms: _524  and  _526
REMARK  224  A    between atoms: _526  and  _527
REMARK  225  A    between atoms: _526  and  _529
REMARK  226  A    between atoms: _529  and  _530
REMARK  227  A    between atoms: _532  and  _534
REMARK  228  A    between atoms: _534  and  _535
REMARK  229  A    between atoms: _534  and  _537
REMARK  230  A    between atoms: _537  and  _538
REMARK  231  A    between atoms: _541  and  _543
REMARK  232  A    between atoms: _543  and  _544
REMARK  233  A    between atoms: _543  and  _546
REMARK  234  A    between atoms: _546  and  _547
REMARK  235  A    between atoms: _547  and  _548
REMARK  236  A    between atoms: _548  and  _549
REMARK  237  A    between atoms: _558  and  _560
REMARK  238  A    between atoms: _560  and  _561
REMARK  239  A    between atoms: _560  and  _563
REMARK  240  A    between atoms: _566  and  _568
REMARK  241  A    between atoms: _568  and  _569
REMARK  242  A    between atoms: _568  and  _571
REMARK  243  A    between atoms: _571  and  _572
REMARK  244  A    between atoms: _577  and  _578
REMARK                            x       y       z     vdW  Elec       q    Type
REMARK                         _______ _______ _______ _____ _____    ______ ____
ROOT
ATOM      1  O   HOH     1      10.344  24.158  -6.976  0.00  0.00    +0.000 OA
ENDROOT
TORSDOF 0
REMARK  Name = ../refined-set-2016/3hk1/3hk1_pocket.pdb
REMARK  244 active torsions:
REMARK  status: ('A' for Active; 'I' for Inactive)
REMARK    1  A    between atoms: _1  and  _3
REMARK    2  A    between atoms: _3  and  _4
REMARK    3  A    between atoms: _3  and  _6
REMARK    4  A    between atoms: _6  and  _7
REMARK    5  A    between atoms: _10  and  _12
REMARK    6  A    between atoms: _12  and  _13
REMARK    7  A    between atoms: _12  and  _15
REMARK    8  A    between atoms: _18  and  _20
REMARK    9  A    between atoms: _20  and  _21
REMARK   10  A    between atoms: _20  and  _23
REMARK   11  A    between atoms: _23  and  _24
REMARK   12  A    between atoms: _26  and  _28
REMARK   13  A    between atoms: _28  and  _29
REMARK   14  A    between atoms: _28  and  _31
REMARK   15  A    between atoms: _31  and  _32
REMARK   16  A    between atoms: _34  and  _36
REMARK   17  A    between atoms: _36  and  _37
REMARK   18  A    between atoms: _36  and  _39
REMARK   19  A    between atoms: _39  and  _40
REMARK   20  A    between atoms: _46  and  _48
REMARK   21  A    between atoms: _48  and  _49
REMARK   22  A    between atoms: _48  and  _51
REMARK   23  A    between atoms: _51  and  _52
REMARK   24  A    between atoms: _57  and  _58
REMARK   25  A    between atoms: _60  and  _62
REMARK   26  A    between atoms: _62  and  _63
REMARK   27  A    between atoms: _62  and  _65
REMARK   28  A    between atoms: _65  and  _66
REMARK   29  A    between atoms: _66  and  _67
REMARK   30  A    between atoms: _69  and  _71
REMARK   31  A    between atoms: _71  and  _72
REMARK   32  A    between atoms: _71  and  _74
REMARK   33  A    between atoms: _74  and  _75
REMARK   34  A    between atoms: _75  and  _76
REMARK   35  A    between atoms: _76  and  _77
REMARK   36  A    between atoms: _77  and  _78
REMARK   37  A    between atoms: _82  and  _84
REMARK   38  A    between atoms: _84  and  _85
REMARK   39  A    between atoms: _84  and  _87
REMARK   40  A    between atoms: _87  and  _88
REMARK   41  A    between atoms: _88  and  _89
REMARK   42  A    between atoms: _92  and  _94
REMARK   43  A    between atoms: _94  and  _95
REMARK   44  A    between atoms: _94  and  _97
REMARK   45  A    between atoms: _100  and  _102
REMARK   46  A    between atoms: _102  and  _103
REMARK   47  A    between atoms: _105  and  _107
REMARK   48  A    between atoms: _107  and  _108
REMARK   49  A    between atoms: _107  and  _110
REMARK   50  A    between atoms: _113  and  _115
REMARK   51  A    between atoms: _115  and  _116
REMARK   52  A    between atoms: _118  and  _120
REMARK   53  A    between atoms: _120  and  _121
REMARK   54  A    between atoms: _124  and  _126
REMARK   55  A    between atoms: _126  and  _127
REMARK   56  A    between atoms: _126  and  _129
REMARK   57  A    between atoms: _129  and  _130
REMARK   58  A    between atoms: _133  and  _135
REMARK   59  A    between atoms: _135  and  _136
REMARK   60  A    between atoms: _135  and  _138
REMARK   61  A    between atoms: _138  and  _139
REMARK   62  A    between atoms: _139  and  _140
REMARK   63  A    between atoms: _140  and  _141
REMARK   64  A    between atoms: _150  and  _152
REMARK   65  A    between atoms: _152  and  _153
REMARK   66  A    between atoms: _152  and  _155
REMARK   67  A    between atoms: _155  and  _156
REMARK   68  A    between atoms: _156  and  _157
REMARK   69  A    between atoms: _157  and  _158
REMARK   70  A    between atoms: _158  and  _159
REMARK   71  A    between atoms: _163  and  _165
REMARK   72  A    between atoms: _165  and  _166
REMARK   73  A    between atoms: _165  and  _168
REMARK   74  A    between atoms: _171  and  _173
REMARK   75  A    between atoms: _173  and  _174
REMARK   76  A    between atoms: _177  and  _179
REMARK   77  A    between atoms: _179  and  _180
REMARK   78  A    between atoms: _182  and  _184
REMARK   79  A    between atoms: _184  and  _185
REMARK   80  A    between atoms: _184  and  _187
REMARK   81  A    between atoms: _187  and  _188
REMARK   82  A    between atoms: _188  and  _189
REMARK   83  A    between atoms: _191  and  _193
REMARK   84  A    between atoms: _193  and  _194
REMARK   85  A    between atoms: _197  and  _199
REMARK   86  A    between atoms: _199  and  _200
REMARK   87  A    between atoms: _199  and  _202
REMARK   88  A    between atoms: _202  and  _203
REMARK   89  A    between atoms: _203  and  _204
REMARK   90  A    between atoms: _204  and  _205
REMARK   91  A    between atoms: _205  and  _206
REMARK   92  A    between atoms: _211  and  _212
REMARK   93  A    between atoms: _217  and  _219
REMARK   94  A    between atoms: _219  and  _220
REMARK   95  A    between atoms: _219  and  _222
REMARK   96  A    between atoms: _222  and  _223
REMARK   97  A    between atoms: _228  and  _230
REMARK   98  A    between atoms: _230  and  _231
REMARK   99  A    between atoms: _230  and  _233
REMARK  100  A    between atoms: _233  and  _234
REMARK  101  A    between atoms: _234  and  _235
REMARK  102  A    between atoms: _237  and  _239
REMARK  103  A    between atoms: _239  and  _240
REMARK  104  A    between atoms: _239  and  _242
REMARK  105  A    between atoms: _242  and  _243
REMARK  106  A    between atoms: _246  and  _248
REMARK  107  A    between atoms: _248  and  _249
REMARK  108  A    between atoms: _248  and  _251
REMARK  109  A    between atoms: _251  and  _252
REMARK  110  A    between atoms: _252  and  _253
REMARK  111  A    between atoms: _253  and  _254
REMARK  112  A    between atoms: _263  and  _265
REMARK  113  A    between atoms: _265  and  _266
REMARK  114  A    between atoms: _265  and  _268
REMARK  115  A    between atoms: _268  and  _269
REMARK  116  A    between atoms: _271  and  _273
REMARK  117  A    between atoms: _273  and  _274
REMARK  118  A    between atoms: _273  and  _276
REMARK  119  A    between atoms: _276  and  _277
REMARK  120  A    between atoms: _277  and  _278
REMARK  121  A    between atoms: _281  and  _283
REMARK  122  A    between atoms: _283  and  _284
REMARK  123  A    between atoms: _283  and  _286
REMARK  124  A    between atoms: _286  and  _287
REMARK  125  A    between atoms: _289  and  _291
REMARK  126  A    between atoms: _291  and  _292
REMARK  127  A    between atoms: _291  and  _294
REMARK  128  A    between atoms: _294  and  _295
REMARK  129  A    between atoms: _298  and  _300
REMARK  130  A    between atoms: _300  and  _301
REMARK  131  A    between atoms: _300  and  _303
REMARK  132  A    between atoms: _303  and  _304
REMARK  133  A    between atoms: _310  and  _312
REMARK  134  A    between atoms: _312  and  _313
REMARK  135  A    between atoms: _312  and  _315
REMARK  136  A    between atoms: _315  and  _316
REMARK  137  A    between atoms: _316  and  _317
REMARK  138  A    between atoms: _317  and  _318
REMARK  139  A    between atoms: _318  and  _319
REMARK  140  A    between atoms: _323  and  _325
REMARK  141  A    between atoms: _325  and  _326
REMARK  142  A    between atoms: _325  and  _328
REMARK  143  A    between atoms: _328  and  _329
REMARK  144  A    between atoms: _334  and  _336
REMARK  145  A    between atoms: _336  and  _337
REMARK  146  A    between atoms: _336  and  _339
REMARK  147  A    between atoms: _339  and  _340
REMARK  148  A    between atoms: _343  and  _345
REMARK  149  A    between atoms: _345  and  _346
REMARK  150  A    between atoms: _345  and  _348
REMARK  151  A    between atoms: _348  and  _349
REMARK  152  A    between atoms: _352  and  _354
REMARK  153  A    between atoms: _354  and  _355
REMARK  154  A    between atoms: _358  and  _360
REMARK  155  A    between atoms: _360  and  _361
REMARK  156  A    between atoms: _360  and  _363
REMARK  157  A    between atoms: _363  and  _364
REMARK  158  A    between atoms: _367  and  _369
REMARK  159  A    between atoms: _369  and  _370
REMARK  160  A    between atoms: _369  and  _372
REMARK  161  A    between atoms: _372  and  _373
REMARK  162  A    between atoms: _376  and  _378
REMARK  163  A    between atoms: _378  and  _379
REMARK  164  A    between atoms: _378  and  _381
REMARK  165  A    between atoms: _381  and  _382
REMARK  166  A    between atoms: _382  and  _383
REMARK  167  A    between atoms: _383  and  _384
REMARK  168  A    between atoms: _393  and  _395
REMARK  169  A    between atoms: _395  and  _396
REMARK  170  A    between atoms: _395  and  _398
REMARK  171  A    between atoms: _398  and  _399
REMARK  172  A    between atoms: _399  and  _400
REMARK  173  A    between atoms: _405  and  _407
REMARK  174  A    between atoms: _407  and  _408
REMARK  175  A    between atoms: _407  and  _410
REMARK  176  A    between atoms: _410  and  _411
REMARK  177  A    between atoms: _411  and  _412
REMARK  178  A    between atoms: _417  and  _419
REMARK  179  A    between atoms: _419  and  _420
REMARK  180  A    between atoms: _419  and  _422
REMARK  181  A    between atoms: _422  and  _423
REMARK  182  A    between atoms: _433  and  _435
REMARK  183  A    between atoms: _435  and  _436
REMARK  184  A    between atoms: _435  and  _438
REMARK  185  A    between atoms: _438  and  _439
REMARK  186  A    between atoms: _442  and  _444
REMARK  187  A    between atoms: _444  and  _445
REMARK  188  A    between atoms: _444  and  _447
REMARK  189  A    between atoms: _447  and  _448
REMARK  190  A    between atoms: _451  and  _453
REMARK  191  A    between atoms: _453  and  _454
REMARK  192  A    between atoms: _453  and  _456
REMARK  193  A    between atoms: _456  and  _457
REMARK  194  A    between atoms: _457  and  _458
REMARK  195  A    between atoms: _458  and  _459
REMARK  196  A    between atoms: _459  and  _460
REMARK  197  A    between atoms: _464  and  _466
REMARK  198  A    between atoms: _466  and  _467
REMARK  199  A    between atoms: _466  and  _469
REMARK  200  A    between atoms: _469  and  _470
REMARK  201  A    between atoms: _470  and  _471
REMARK  202  A    between atoms: _471  and  _472
REMARK  203  A    between atoms: _481  and  _483
REMARK  204  A    between atoms: _483  and  _484
REMARK  205  A    between atoms: _483  and  _486
REMARK  206  A    between atoms: _486  and  _487
REMARK  207  A    between atoms: _490  and  _492
REMARK  208  A    between atoms: _492  and  _493
REMARK  209  A    between atoms: _492  and  _495
REMARK  210  A    between atoms: _498  and  _500
REMARK  211  A    between atoms: _500  and  _501
REMARK  212  A    between atoms: _500  and  _503
REMARK  213  A    between atoms: _503  and  _504
REMARK  214  A    between atoms: _504  and  _505
REMARK  215  A    between atoms: _508  and  _510
REMARK  216  A    between atoms: _510  and  _511
REMARK  217  A    between atoms: _510  and  _513
REMARK  218  A    between atoms: _515  and  _517
REMARK  219  A    between atoms: _517  and  _518
REMARK  220  A    between atoms: _517  and  _520
REMARK  221  A    between atoms: _520  and  _521
REMARK  222  A    between atoms: _521  and  _522
REMARK  223  A    between atoms: _524  and  _526
REMARK  224  A    between atoms: _526  and  _527
REMARK  225  A    between atoms: _526  and  _529
REMARK  226  A    between atoms: _529  and  _530
REMARK  227  A    between atoms: _532  and  _534
REMARK  228  A    between atoms: _534  and  _535
REMARK  229  A    between atoms: _534  and  _537
REMARK  230  A    between atoms: _537  and  _538
REMARK  231  A    between atoms: _541  and  _543
REMARK  232  A    between atoms: _543  and  _544
REMARK  233  A    between atoms: _543  and  _546
REMARK  234  A    between atoms: _546  and  _547
REMARK  235  A    between atoms: _547  and  _548
REMARK  236  A    between atoms: _548  and  _549
REMARK  237  A    between atoms: _558  and  _560
REMARK  238  A    between atoms: _560  and  _561
REMARK  239  A    between atoms: _560  and  _563
REMARK  240  A    between atoms: _566  and  _568
REMARK  241  A    between atoms: _568  and  _569
REMARK  242  A    between atoms: _568  and  _571
REMARK  243  A    between atoms: _571  and  _572
REMARK  244  A    between atoms: _577  and  _578
REMARK                            x       y       z     vdW  Elec       q    Type
REMARK                         _______ _______ _______ _____ _____    ______ ____
ROOT
ATOM      1  O   HOH     1       8.428  24.803  -8.908  0.00  0.00    +0.000 OA
ENDROOT
TORSDOF 0
REMARK  Name = ../refined-set-2016/3hk1/3hk1_pocket.pdb
REMARK  244 active torsions:
REMARK  status: ('A' for Active; 'I' for Inactive)
REMARK    1  A    between atoms: _1  and  _3
REMARK    2  A    between atoms: _3  and  _4
REMARK    3  A    between atoms: _3  and  _6
REMARK    4  A    between atoms: _6  and  _7
REMARK    5  A    between atoms: _10  and  _12
REMARK    6  A    between atoms: _12  and  _13
REMARK    7  A    between atoms: _12  and  _15
REMARK    8  A    between atoms: _18  and  _20
REMARK    9  A    between atoms: _20  and  _21
REMARK   10  A    between atoms: _20  and  _23
REMARK   11  A    between atoms: _23  and  _24
REMARK   12  A    between atoms: _26  and  _28
REMARK   13  A    between atoms: _28  and  _29
REMARK   14  A    between atoms: _28  and  _31
REMARK   15  A    between atoms: _31  and  _32
REMARK   16  A    between atoms: _34  and  _36
REMARK   17  A    between atoms: _36  and  _37
REMARK   18  A    between atoms: _36  and  _39
REMARK   19  A    between atoms: _39  and  _40
REMARK   20  A    between atoms: _46  and  _48
REMARK   21  A    between atoms: _48  and  _49
REMARK   22  A    between atoms: _48  and  _51
REMARK   23  A    between atoms: _51  and  _52
REMARK   24  A    between atoms: _57  and  _58
REMARK   25  A    between atoms: _60  and  _62
REMARK   26  A    between atoms: _62  and  _63
REMARK   27  A    between atoms: _62  and  _65
REMARK   28  A    between atoms: _65  and  _66
REMARK   29  A    between atoms: _66  and  _67
REMARK   30  A    between atoms: _69  and  _71
REMARK   31  A    between atoms: _71  and  _72
REMARK   32  A    between atoms: _71  and  _74
REMARK   33  A    between atoms: _74  and  _75
REMARK   34  A    between atoms: _75  and  _76
REMARK   35  A    between atoms: _76  and  _77
REMARK   36  A    between atoms: _77  and  _78
REMARK   37  A    between atoms: _82  and  _84
REMARK   38  A    between atoms: _84  and  _85
REMARK   39  A    between atoms: _84  and  _87
REMARK   40  A    between atoms: _87  and  _88
REMARK   41  A    between atoms: _88  and  _89
REMARK   42  A    between atoms: _92  and  _94
REMARK   43  A    between atoms: _94  and  _95
REMARK   44  A    between atoms: _94  and  _97
REMARK   45  A    between atoms: _100  and  _102
REMARK   46  A    between atoms: _102  and  _103
REMARK   47  A    between atoms: _105  and  _107
REMARK   48  A    between atoms: _107  and  _108
REMARK   49  A    between atoms: _107  and  _110
REMARK   50  A    between atoms: _113  and  _115
REMARK   51  A    between atoms: _115  and  _116
REMARK   52  A    between atoms: _118  and  _120
REMARK   53  A    between atoms: _120  and  _121
REMARK   54  A    between atoms: _124  and  _126
REMARK   55  A    between atoms: _126  and  _127
REMARK   56  A    between atoms: _126  and  _129
REMARK   57  A    between atoms: _129  and  _130
REMARK   58  A    between atoms: _133  and  _135
REMARK   59  A    between atoms: _135  and  _136
REMARK   60  A    between atoms: _135  and  _138
REMARK   61  A    between atoms: _138  and  _139
REMARK   62  A    between atoms: _139  and  _140
REMARK   63  A    between atoms: _140  and  _141
REMARK   64  A    between atoms: _150  and  _152
REMARK   65  A    between atoms: _152  and  _153
REMARK   66  A    between atoms: _152  and  _155
REMARK   67  A    between atoms: _155  and  _156
REMARK   68  A    between atoms: _156  and  _157
REMARK   69  A    between atoms: _157  and  _158
REMARK   70  A    between atoms: _158  and  _159
REMARK   71  A    between atoms: _163  and  _165
REMARK   72  A    between atoms: _165  and  _166
REMARK   73  A    between atoms: _165  and  _168
REMARK   74  A    between atoms: _171  and  _173
REMARK   75  A    between atoms: _173  and  _174
REMARK   76  A    between atoms: _177  and  _179
REMARK   77  A    between atoms: _179  and  _180
REMARK   78  A    between atoms: _182  and  _184
REMARK   79  A    between atoms: _184  and  _185
REMARK   80  A    between atoms: _184  and  _187
REMARK   81  A    between atoms: _187  and  _188
REMARK   82  A    between atoms: _188  and  _189
REMARK   83  A    between atoms: _191  and  _193
REMARK   84  A    between atoms: _193  and  _194
REMARK   85  A    between atoms: _197  and  _199
REMARK   86  A    between atoms: _199  and  _200
REMARK   87  A    between atoms: _199  and  _202
REMARK   88  A    between atoms: _202  and  _203
REMARK   89  A    between atoms: _203  and  _204
REMARK   90  A    between atoms: _204  and  _205
REMARK   91  A    between atoms: _205  and  _206
REMARK   92  A    between atoms: _211  and  _212
REMARK   93  A    between atoms: _217  and  _219
REMARK   94  A    between atoms: _219  and  _220
REMARK   95  A    between atoms: _219  and  _222
REMARK   96  A    between atoms: _222  and  _223
REMARK   97  A    between atoms: _228  and  _230
REMARK   98  A    between atoms: _230  and  _231
REMARK   99  A    between atoms: _230  and  _233
REMARK  100  A    between atoms: _233  and  _234
REMARK  101  A    between atoms: _234  and  _235
REMARK  102  A    between atoms: _237  and  _239
REMARK  103  A    between atoms: _239  and  _240
REMARK  104  A    between atoms: _239  and  _242
REMARK  105  A    between atoms: _242  and  _243
REMARK  106  A    between atoms: _246  and  _248
REMARK  107  A    between atoms: _248  and  _249
REMARK  108  A    between atoms: _248  and  _251
REMARK  109  A    between atoms: _251  and  _252
REMARK  110  A    between atoms: _252  and  _253
REMARK  111  A    between atoms: _253  and  _254
REMARK  112  A    between atoms: _263  and  _265
REMARK  113  A    between atoms: _265  and  _266
REMARK  114  A    between atoms: _265  and  _268
REMARK  115  A    between atoms: _268  and  _269
REMARK  116  A    between atoms: _271  and  _273
REMARK  117  A    between atoms: _273  and  _274
REMARK  118  A    between atoms: _273  and  _276
REMARK  119  A    between atoms: _276  and  _277
REMARK  120  A    between atoms: _277  and  _278
REMARK  121  A    between atoms: _281  and  _283
REMARK  122  A    between atoms: _283  and  _284
REMARK  123  A    between atoms: _283  and  _286
REMARK  124  A    between atoms: _286  and  _287
REMARK  125  A    between atoms: _289  and  _291
REMARK  126  A    between atoms: _291  and  _292
REMARK  127  A    between atoms: _291  and  _294
REMARK  128  A    between atoms: _294  and  _295
REMARK  129  A    between atoms: _298  and  _300
REMARK  130  A    between atoms: _300  and  _301
REMARK  131  A    between atoms: _300  and  _303
REMARK  132  A    between atoms: _303  and  _304
REMARK  133  A    between atoms: _310  and  _312
REMARK  134  A    between atoms: _312  and  _313
REMARK  135  A    between atoms: _312  and  _315
REMARK  136  A    between atoms: _315  and  _316
REMARK  137  A    between atoms: _316  and  _317
REMARK  138  A    between atoms: _317  and  _318
REMARK  139  A    between atoms: _318  and  _319
REMARK  140  A    between atoms: _323  and  _325
REMARK  141  A    between atoms: _325  and  _326
REMARK  142  A    between atoms: _325  and  _328
REMARK  143  A    between atoms: _328  and  _329
REMARK  144  A    between atoms: _334  and  _336
REMARK  145  A    between atoms: _336  and  _337
REMARK  146  A    between atoms: _336  and  _339
REMARK  147  A    between atoms: _339  and  _340
REMARK  148  A    between atoms: _343  and  _345
REMARK  149  A    between atoms: _345  and  _346
REMARK  150  A    between atoms: _345  and  _348
REMARK  151  A    between atoms: _348  and  _349
REMARK  152  A    between atoms: _352  and  _354
REMARK  153  A    between atoms: _354  and  _355
REMARK  154  A    between atoms: _358  and  _360
REMARK  155  A    between atoms: _360  and  _361
REMARK  156  A    between atoms: _360  and  _363
REMARK  157  A    between atoms: _363  and  _364
REMARK  158  A    between atoms: _367  and  _369
REMARK  159  A    between atoms: _369  and  _370
REMARK  160  A    between atoms: _369  and  _372
REMARK  161  A    between atoms: _372  and  _373
REMARK  162  A    between atoms: _376  and  _378
REMARK  163  A    between atoms: _378  and  _379
REMARK  164  A    between atoms: _378  and  _381
REMARK  165  A    between atoms: _381  and  _382
REMARK  166  A    between atoms: _382  and  _383
REMARK  167  A    between atoms: _383  and  _384
REMARK  168  A    between atoms: _393  and  _395
REMARK  169  A    between atoms: _395  and  _396
REMARK  170  A    between atoms: _395  and  _398
REMARK  171  A    between atoms: _398  and  _399
REMARK  172  A    between atoms: _399  and  _400
REMARK  173  A    between atoms: _405  and  _407
REMARK  174  A    between atoms: _407  and  _408
REMARK  175  A    between atoms: _407  and  _410
REMARK  176  A    between atoms: _410  and  _411
REMARK  177  A    between atoms: _411  and  _412
REMARK  178  A    between atoms: _417  and  _419
REMARK  179  A    between atoms: _419  and  _420
REMARK  180  A    between atoms: _419  and  _422
REMARK  181  A    between atoms: _422  and  _423
REMARK  182  A    between atoms: _433  and  _435
REMARK  183  A    between atoms: _435  and  _436
REMARK  184  A    between atoms: _435  and  _438
REMARK  185  A    between atoms: _438  and  _439
REMARK  186  A    between atoms: _442  and  _444
REMARK  187  A    between atoms: _444  and  _445
REMARK  188  A    between atoms: _444  and  _447
REMARK  189  A    between atoms: _447  and  _448
REMARK  190  A    between atoms: _451  and  _453
REMARK  191  A    between atoms: _453  and  _454
REMARK  192  A    between atoms: _453  and  _456
REMARK  193  A    between atoms: _456  and  _457
REMARK  194  A    between atoms: _457  and  _458
REMARK  195  A    between atoms: _458  and  _459
REMARK  196  A    between atoms: _459  and  _460
REMARK  197  A    between atoms: _464  and  _466
REMARK  198  A    between atoms: _466  and  _467
REMARK  199  A    between atoms: _466  and  _469
REMARK  200  A    between atoms: _469  and  _470
REMARK  201  A    between atoms: _470  and  _471
REMARK  202  A    between atoms: _471  and  _472
REMARK  203  A    between atoms: _481  and  _483
REMARK  204  A    between atoms: _483  and  _484
REMARK  205  A    between atoms: _483  and  _486
REMARK  206  A    between atoms: _486  and  _487
REMARK  207  A    between atoms: _490  and  _492
REMARK  208  A    between atoms: _492  and  _493
REMARK  209  A    between atoms: _492  and  _495
REMARK  210  A    between atoms: _498  and  _500
REMARK  211  A    between atoms: _500  and  _501
REMARK  212  A    between atoms: _500  and  _503
REMARK  213  A    between atoms: _503  and  _504
REMARK  214  A    between atoms: _504  and  _505
REMARK  215  A    between atoms: _508  and  _510
REMARK  216  A    between atoms: _510  and  _511
REMARK  217  A    between atoms: _510  and  _513
REMARK  218  A    between atoms: _515  and  _517
REMARK  219  A    between atoms: _517  and  _518
REMARK  220  A    between atoms: _517  and  _520
REMARK  221  A    between atoms: _520  and  _521
REMARK  222  A    between atoms: _521  and  _522
REMARK  223  A    between atoms: _524  and  _526
REMARK  224  A    between atoms: _526  and  _527
REMARK  225  A    between atoms: _526  and  _529
REMARK  226  A    between atoms: _529  and  _530
REMARK  227  A    between atoms: _532  and  _534
REMARK  228  A    between atoms: _534  and  _535
REMARK  229  A    between atoms: _534  and  _537
REMARK  230  A    between atoms: _537  and  _538
REMARK  231  A    between atoms: _541  and  _543
REMARK  232  A    between atoms: _543  and  _544
REMARK  233  A    between atoms: _543  and  _546
REMARK  234  A    between atoms: _546  and  _547
REMARK  235  A    between atoms: _547  and  _548
REMARK  236  A    between atoms: _548  and  _549
REMARK  237  A    between atoms: _558  and  _560
REMARK  238  A    between atoms: _560  and  _561
REMARK  239  A    between atoms: _560  and  _563
REMARK  240  A    between atoms: _566  and  _568
REMARK  241  A    between atoms: _568  and  _569
REMARK  242  A    between atoms: _568  and  _571
REMARK  243  A    between atoms: _571  and  _572
REMARK  244  A    between atoms: _577  and  _578
REMARK                            x       y       z     vdW  Elec       q    Type
REMARK                         _______ _______ _______ _____ _____    ______ ____
ROOT
ATOM      1  O   HOH     1       6.710  22.632  -8.831  0.00  0.00    +0.000 OA
ENDROOT
TORSDOF 0
REMARK  Name = ../refined-set-2016/3hk1/3hk1_pocket.pdb
REMARK  244 active torsions:
REMARK  status: ('A' for Active; 'I' for Inactive)
REMARK    1  A    between atoms: _1  and  _3
REMARK    2  A    between atoms: _3  and  _4
REMARK    3  A    between atoms: _3  and  _6
REMARK    4  A    between atoms: _6  and  _7
REMARK    5  A    between atoms: _10  and  _12
REMARK    6  A    between atoms: _12  and  _13
REMARK    7  A    between atoms: _12  and  _15
REMARK    8  A    between atoms: _18  and  _20
REMARK    9  A    between atoms: _20  and  _21
REMARK   10  A    between atoms: _20  and  _23
REMARK   11  A    between atoms: _23  and  _24
REMARK   12  A    between atoms: _26  and  _28
REMARK   13  A    between atoms: _28  and  _29
REMARK   14  A    between atoms: _28  and  _31
REMARK   15  A    between atoms: _31  and  _32
REMARK   16  A    between atoms: _34  and  _36
REMARK   17  A    between atoms: _36  and  _37
REMARK   18  A    between atoms: _36  and  _39
REMARK   19  A    between atoms: _39  and  _40
REMARK   20  A    between atoms: _46  and  _48
REMARK   21  A    between atoms: _48  and  _49
REMARK   22  A    between atoms: _48  and  _51
REMARK   23  A    between atoms: _51  and  _52
REMARK   24  A    between atoms: _57  and  _58
REMARK   25  A    between atoms: _60  and  _62
REMARK   26  A    between atoms: _62  and  _63
REMARK   27  A    between atoms: _62  and  _65
REMARK   28  A    between atoms: _65  and  _66
REMARK   29  A    between atoms: _66  and  _67
REMARK   30  A    between atoms: _69  and  _71
REMARK   31  A    between atoms: _71  and  _72
REMARK   32  A    between atoms: _71  and  _74
REMARK   33  A    between atoms: _74  and  _75
REMARK   34  A    between atoms: _75  and  _76
REMARK   35  A    between atoms: _76  and  _77
REMARK   36  A    between atoms: _77  and  _78
REMARK   37  A    between atoms: _82  and  _84
REMARK   38  A    between atoms: _84  and  _85
REMARK   39  A    between atoms: _84  and  _87
REMARK   40  A    between atoms: _87  and  _88
REMARK   41  A    between atoms: _88  and  _89
REMARK   42  A    between atoms: _92  and  _94
REMARK   43  A    between atoms: _94  and  _95
REMARK   44  A    between atoms: _94  and  _97
REMARK   45  A    between atoms: _100  and  _102
REMARK   46  A    between atoms: _102  and  _103
REMARK   47  A    between atoms: _105  and  _107
REMARK   48  A    between atoms: _107  and  _108
REMARK   49  A    between atoms: _107  and  _110
REMARK   50  A    between atoms: _113  and  _115
REMARK   51  A    between atoms: _115  and  _116
REMARK   52  A    between atoms: _118  and  _120
REMARK   53  A    between atoms: _120  and  _121
REMARK   54  A    between atoms: _124  and  _126
REMARK   55  A    between atoms: _126  and  _127
REMARK   56  A    between atoms: _126  and  _129
REMARK   57  A    between atoms: _129  and  _130
REMARK   58  A    between atoms: _133  and  _135
REMARK   59  A    between atoms: _135  and  _136
REMARK   60  A    between atoms: _135  and  _138
REMARK   61  A    between atoms: _138  and  _139
REMARK   62  A    between atoms: _139  and  _140
REMARK   63  A    between atoms: _140  and  _141
REMARK   64  A    between atoms: _150  and  _152
REMARK   65  A    between atoms: _152  and  _153
REMARK   66  A    between atoms: _152  and  _155
REMARK   67  A    between atoms: _155  and  _156
REMARK   68  A    between atoms: _156  and  _157
REMARK   69  A    between atoms: _157  and  _158
REMARK   70  A    between atoms: _158  and  _159
REMARK   71  A    between atoms: _163  and  _165
REMARK   72  A    between atoms: _165  and  _166
REMARK   73  A    between atoms: _165  and  _168
REMARK   74  A    between atoms: _171  and  _173
REMARK   75  A    between atoms: _173  and  _174
REMARK   76  A    between atoms: _177  and  _179
REMARK   77  A    between atoms: _179  and  _180
REMARK   78  A    between atoms: _182  and  _184
REMARK   79  A    between atoms: _184  and  _185
REMARK   80  A    between atoms: _184  and  _187
REMARK   81  A    between atoms: _187  and  _188
REMARK   82  A    between atoms: _188  and  _189
REMARK   83  A    between atoms: _191  and  _193
REMARK   84  A    between atoms: _193  and  _194
REMARK   85  A    between atoms: _197  and  _199
REMARK   86  A    between atoms: _199  and  _200
REMARK   87  A    between atoms: _199  and  _202
REMARK   88  A    between atoms: _202  and  _203
REMARK   89  A    between atoms: _203  and  _204
REMARK   90  A    between atoms: _204  and  _205
REMARK   91  A    between atoms: _205  and  _206
REMARK   92  A    between atoms: _211  and  _212
REMARK   93  A    between atoms: _217  and  _219
REMARK   94  A    between atoms: _219  and  _220
REMARK   95  A    between atoms: _219  and  _222
REMARK   96  A    between atoms: _222  and  _223
REMARK   97  A    between atoms: _228  and  _230
REMARK   98  A    between atoms: _230  and  _231
REMARK   99  A    between atoms: _230  and  _233
REMARK  100  A    between atoms: _233  and  _234
REMARK  101  A    between atoms: _234  and  _235
REMARK  102  A    between atoms: _237  and  _239
REMARK  103  A    between atoms: _239  and  _240
REMARK  104  A    between atoms: _239  and  _242
REMARK  105  A    between atoms: _242  and  _243
REMARK  106  A    between atoms: _246  and  _248
REMARK  107  A    between atoms: _248  and  _249
REMARK  108  A    between atoms: _248  and  _251
REMARK  109  A    between atoms: _251  and  _252
REMARK  110  A    between atoms: _252  and  _253
REMARK  111  A    between atoms: _253  and  _254
REMARK  112  A    between atoms: _263  and  _265
REMARK  113  A    between atoms: _265  and  _266
REMARK  114  A    between atoms: _265  and  _268
REMARK  115  A    between atoms: _268  and  _269
REMARK  116  A    between atoms: _271  and  _273
REMARK  117  A    between atoms: _273  and  _274
REMARK  118  A    between atoms: _273  and  _276
REMARK  119  A    between atoms: _276  and  _277
REMARK  120  A    between atoms: _277  and  _278
REMARK  121  A    between atoms: _281  and  _283
REMARK  122  A    between atoms: _283  and  _284
REMARK  123  A    between atoms: _283  and  _286
REMARK  124  A    between atoms: _286  and  _287
REMARK  125  A    between atoms: _289  and  _291
REMARK  126  A    between atoms: _291  and  _292
REMARK  127  A    between atoms: _291  and  _294
REMARK  128  A    between atoms: _294  and  _295
REMARK  129  A    between atoms: _298  and  _300
REMARK  130  A    between atoms: _300  and  _301
REMARK  131  A    between atoms: _300  and  _303
REMARK  132  A    between atoms: _303  and  _304
REMARK  133  A    between atoms: _310  and  _312
REMARK  134  A    between atoms: _312  and  _313
REMARK  135  A    between atoms: _312  and  _315
REMARK  136  A    between atoms: _315  and  _316
REMARK  137  A    between atoms: _316  and  _317
REMARK  138  A    between atoms: _317  and  _318
REMARK  139  A    between atoms: _318  and  _319
REMARK  140  A    between atoms: _323  and  _325
REMARK  141  A    between atoms: _325  and  _326
REMARK  142  A    between atoms: _325  and  _328
REMARK  143  A    between atoms: _328  and  _329
REMARK  144  A    between atoms: _334  and  _336
REMARK  145  A    between atoms: _336  and  _337
REMARK  146  A    between atoms: _336  and  _339
REMARK  147  A    between atoms: _339  and  _340
REMARK  148  A    between atoms: _343  and  _345
REMARK  149  A    between atoms: _345  and  _346
REMARK  150  A    between atoms: _345  and  _348
REMARK  151  A    between atoms: _348  and  _349
REMARK  152  A    between atoms: _352  and  _354
REMARK  153  A    between atoms: _354  and  _355
REMARK  154  A    between atoms: _358  and  _360
REMARK  155  A    between atoms: _360  and  _361
REMARK  156  A    between atoms: _360  and  _363
REMARK  157  A    between atoms: _363  and  _364
REMARK  158  A    between atoms: _367  and  _369
REMARK  159  A    between atoms: _369  and  _370
REMARK  160  A    between atoms: _369  and  _372
REMARK  161  A    between atoms: _372  and  _373
REMARK  162  A    between atoms: _376  and  _378
REMARK  163  A    between atoms: _378  and  _379
REMARK  164  A    between atoms: _378  and  _381
REMARK  165  A    between atoms: _381  and  _382
REMARK  166  A    between atoms: _382  and  _383
REMARK  167  A    between atoms: _383  and  _384
REMARK  168  A    between atoms: _393  and  _395
REMARK  169  A    between atoms: _395  and  _396
REMARK  170  A    between atoms: _395  and  _398
REMARK  171  A    between atoms: _398  and  _399
REMARK  172  A    between atoms: _399  and  _400
REMARK  173  A    between atoms: _405  and  _407
REMARK  174  A    between atoms: _407  and  _408
REMARK  175  A    between atoms: _407  and  _410
REMARK  176  A    between atoms: _410  and  _411
REMARK  177  A    between atoms: _411  and  _412
REMARK  178  A    between atoms: _417  and  _419
REMARK  179  A    between atoms: _419  and  _420
REMARK  180  A    between atoms: _419  and  _422
REMARK  181  A    between atoms: _422  and  _423
REMARK  182  A    between atoms: _433  and  _435
REMARK  183  A    between atoms: _435  and  _436
REMARK  184  A    between atoms: _435  and  _438
REMARK  185  A    between atoms: _438  and  _439
REMARK  186  A    between atoms: _442  and  _444
REMARK  187  A    between atoms: _444  and  _445
REMARK  188  A    between atoms: _444  and  _447
REMARK  189  A    between atoms: _447  and  _448
REMARK  190  A    between atoms: _451  and  _453
REMARK  191  A    between atoms: _453  and  _454
REMARK  192  A    between atoms: _453  and  _456
REMARK  193  A    between atoms: _456  and  _457
REMARK  194  A    between atoms: _457  and  _458
REMARK  195  A    between atoms: _458  and  _459
REMARK  196  A    between atoms: _459  and  _460
REMARK  197  A    between atoms: _464  and  _466
REMARK  198  A    between atoms: _466  and  _467
REMARK  199  A    between atoms: _466  and  _469
REMARK  200  A    between atoms: _469  and  _470
REMARK  201  A    between atoms: _470  and  _471
REMARK  202  A    between atoms: _471  and  _472
REMARK  203  A    between atoms: _481  and  _483
REMARK  204  A    between atoms: _483  and  _484
REMARK  205  A    between atoms: _483  and  _486
REMARK  206  A    between atoms: _486  and  _487
REMARK  207  A    between atoms: _490  and  _492
REMARK  208  A    between atoms: _492  and  _493
REMARK  209  A    between atoms: _492  and  _495
REMARK  210  A    between atoms: _498  and  _500
REMARK  211  A    between atoms: _500  and  _501
REMARK  212  A    between atoms: _500  and  _503
REMARK  213  A    between atoms: _503  and  _504
REMARK  214  A    between atoms: _504  and  _505
REMARK  215  A    between atoms: _508  and  _510
REMARK  216  A    between atoms: _510  and  _511
REMARK  217  A    between atoms: _510  and  _513
REMARK  218  A    between atoms: _515  and  _517
REMARK  219  A    between atoms: _517  and  _518
REMARK  220  A    between atoms: _517  and  _520
REMARK  221  A    between atoms: _520  and  _521
REMARK  222  A    between atoms: _521  and  _522
REMARK  223  A    between atoms: _524  and  _526
REMARK  224  A    between atoms: _526  and  _527
REMARK  225  A    between atoms: _526  and  _529
REMARK  226  A    between atoms: _529  and  _530
REMARK  227  A    between atoms: _532  and  _534
REMARK  228  A    between atoms: _534  and  _535
REMARK  229  A    between atoms: _534  and  _537
REMARK  230  A    between atoms: _537  and  _538
REMARK  231  A    between atoms: _541  and  _543
REMARK  232  A    between atoms: _543  and  _544
REMARK  233  A    between atoms: _543  and  _546
REMARK  234  A    between atoms: _546  and  _547
REMARK  235  A    between atoms: _547  and  _548
REMARK  236  A    between atoms: _548  and  _549
REMARK  237  A    between atoms: _558  and  _560
REMARK  238  A    between atoms: _560  and  _561
REMARK  239  A    between atoms: _560  and  _563
REMARK  240  A    between atoms: _566  and  _568
REMARK  241  A    between atoms: _568  and  _569
REMARK  242  A    between atoms: _568  and  _571
REMARK  243  A    between atoms: _571  and  _572
REMARK  244  A    between atoms: _577  and  _578
REMARK                            x       y       z     vdW  Elec       q    Type
REMARK                         _______ _______ _______ _____ _____    ______ ____
ROOT
ATOM      1  O   HOH     1      18.046  15.535 -14.455  0.00  0.00    +0.000 OA
ENDROOT
TORSDOF 0
REMARK  Name = ../refined-set-2016/3hk1/3hk1_pocket.pdb
REMARK  244 active torsions:
REMARK  status: ('A' for Active; 'I' for Inactive)
REMARK    1  A    between atoms: _1  and  _3
REMARK    2  A    between atoms: _3  and  _4
REMARK    3  A    between atoms: _3  and  _6
REMARK    4  A    between atoms: _6  and  _7
REMARK    5  A    between atoms: _10  and  _12
REMARK    6  A    between atoms: _12  and  _13
REMARK    7  A    between atoms: _12  and  _15
REMARK    8  A    between atoms: _18  and  _20
REMARK    9  A    between atoms: _20  and  _21
REMARK   10  A    between atoms: _20  and  _23
REMARK   11  A    between atoms: _23  and  _24
REMARK   12  A    between atoms: _26  and  _28
REMARK   13  A    between atoms: _28  and  _29
REMARK   14  A    between atoms: _28  and  _31
REMARK   15  A    between atoms: _31  and  _32
REMARK   16  A    between atoms: _34  and  _36
REMARK   17  A    between atoms: _36  and  _37
REMARK   18  A    between atoms: _36  and  _39
REMARK   19  A    between atoms: _39  and  _40
REMARK   20  A    between atoms: _46  and  _48
REMARK   21  A    between atoms: _48  and  _49
REMARK   22  A    between atoms: _48  and  _51
REMARK   23  A    between atoms: _51  and  _52
REMARK   24  A    between atoms: _57  and  _58
REMARK   25  A    between atoms: _60  and  _62
REMARK   26  A    between atoms: _62  and  _63
REMARK   27  A    between atoms: _62  and  _65
REMARK   28  A    between atoms: _65  and  _66
REMARK   29  A    between atoms: _66  and  _67
REMARK   30  A    between atoms: _69  and  _71
REMARK   31  A    between atoms: _71  and  _72
REMARK   32  A    between atoms: _71  and  _74
REMARK   33  A    between atoms: _74  and  _75
REMARK   34  A    between atoms: _75  and  _76
REMARK   35  A    between atoms: _76  and  _77
REMARK   36  A    between atoms: _77  and  _78
REMARK   37  A    between atoms: _82  and  _84
REMARK   38  A    between atoms: _84  and  _85
REMARK   39  A    between atoms: _84  and  _87
REMARK   40  A    between atoms: _87  and  _88
REMARK   41  A    between atoms: _88  and  _89
REMARK   42  A    between atoms: _92  and  _94
REMARK   43  A    between atoms: _94  and  _95
REMARK   44  A    between atoms: _94  and  _97
REMARK   45  A    between atoms: _100  and  _102
REMARK   46  A    between atoms: _102  and  _103
REMARK   47  A    between atoms: _105  and  _107
REMARK   48  A    between atoms: _107  and  _108
REMARK   49  A    between atoms: _107  and  _110
REMARK   50  A    between atoms: _113  and  _115
REMARK   51  A    between atoms: _115  and  _116
REMARK   52  A    between atoms: _118  and  _120
REMARK   53  A    between atoms: _120  and  _121
REMARK   54  A    between atoms: _124  and  _126
REMARK   55  A    between atoms: _126  and  _127
REMARK   56  A    between atoms: _126  and  _129
REMARK   57  A    between atoms: _129  and  _130
REMARK   58  A    between atoms: _133  and  _135
REMARK   59  A    between atoms: _135  and  _136
REMARK   60  A    between atoms: _135  and  _138
REMARK   61  A    between atoms: _138  and  _139
REMARK   62  A    between atoms: _139  and  _140
REMARK   63  A    between atoms: _140  and  _141
REMARK   64  A    between atoms: _150  and  _152
REMARK   65  A    between atoms: _152  and  _153
REMARK   66  A    between atoms: _152  and  _155
REMARK   67  A    between atoms: _155  and  _156
REMARK   68  A    between atoms: _156  and  _157
REMARK   69  A    between atoms: _157  and  _158
REMARK   70  A    between atoms: _158  and  _159
REMARK   71  A    between atoms: _163  and  _165
REMARK   72  A    between atoms: _165  and  _166
REMARK   73  A    between atoms: _165  and  _168
REMARK   74  A    between atoms: _171  and  _173
REMARK   75  A    between atoms: _173  and  _174
REMARK   76  A    between atoms: _177  and  _179
REMARK   77  A    between atoms: _179  and  _180
REMARK   78  A    between atoms: _182  and  _184
REMARK   79  A    between atoms: _184  and  _185
REMARK   80  A    between atoms: _184  and  _187
REMARK   81  A    between atoms: _187  and  _188
REMARK   82  A    between atoms: _188  and  _189
REMARK   83  A    between atoms: _191  and  _193
REMARK   84  A    between atoms: _193  and  _194
REMARK   85  A    between atoms: _197  and  _199
REMARK   86  A    between atoms: _199  and  _200
REMARK   87  A    between atoms: _199  and  _202
REMARK   88  A    between atoms: _202  and  _203
REMARK   89  A    between atoms: _203  and  _204
REMARK   90  A    between atoms: _204  and  _205
REMARK   91  A    between atoms: _205  and  _206
REMARK   92  A    between atoms: _211  and  _212
REMARK   93  A    between atoms: _217  and  _219
REMARK   94  A    between atoms: _219  and  _220
REMARK   95  A    between atoms: _219  and  _222
REMARK   96  A    between atoms: _222  and  _223
REMARK   97  A    between atoms: _228  and  _230
REMARK   98  A    between atoms: _230  and  _231
REMARK   99  A    between atoms: _230  and  _233
REMARK  100  A    between atoms: _233  and  _234
REMARK  101  A    between atoms: _234  and  _235
REMARK  102  A    between atoms: _237  and  _239
REMARK  103  A    between atoms: _239  and  _240
REMARK  104  A    between atoms: _239  and  _242
REMARK  105  A    between atoms: _242  and  _243
REMARK  106  A    between atoms: _246  and  _248
REMARK  107  A    between atoms: _248  and  _249
REMARK  108  A    between atoms: _248  and  _251
REMARK  109  A    between atoms: _251  and  _252
REMARK  110  A    between atoms: _252  and  _253
REMARK  111  A    between atoms: _253  and  _254
REMARK  112  A    between atoms: _263  and  _265
REMARK  113  A    between atoms: _265  and  _266
REMARK  114  A    between atoms: _265  and  _268
REMARK  115  A    between atoms: _268  and  _269
REMARK  116  A    between atoms: _271  and  _273
REMARK  117  A    between atoms: _273  and  _274
REMARK  118  A    between atoms: _273  and  _276
REMARK  119  A    between atoms: _276  and  _277
REMARK  120  A    between atoms: _277  and  _278
REMARK  121  A    between atoms: _281  and  _283
REMARK  122  A    between atoms: _283  and  _284
REMARK  123  A    between atoms: _283  and  _286
REMARK  124  A    between atoms: _286  and  _287
REMARK  125  A    between atoms: _289  and  _291
REMARK  126  A    between atoms: _291  and  _292
REMARK  127  A    between atoms: _291  and  _294
REMARK  128  A    between atoms: _294  and  _295
REMARK  129  A    between atoms: _298  and  _300
REMARK  130  A    between atoms: _300  and  _301
REMARK  131  A    between atoms: _300  and  _303
REMARK  132  A    between atoms: _303  and  _304
REMARK  133  A    between atoms: _310  and  _312
REMARK  134  A    between atoms: _312  and  _313
REMARK  135  A    between atoms: _312  and  _315
REMARK  136  A    between atoms: _315  and  _316
REMARK  137  A    between atoms: _316  and  _317
REMARK  138  A    between atoms: _317  and  _318
REMARK  139  A    between atoms: _318  and  _319
REMARK  140  A    between atoms: _323  and  _325
REMARK  141  A    between atoms: _325  and  _326
REMARK  142  A    between atoms: _325  and  _328
REMARK  143  A    between atoms: _328  and  _329
REMARK  144  A    between atoms: _334  and  _336
REMARK  145  A    between atoms: _336  and  _337
REMARK  146  A    between atoms: _336  and  _339
REMARK  147  A    between atoms: _339  and  _340
REMARK  148  A    between atoms: _343  and  _345
REMARK  149  A    between atoms: _345  and  _346
REMARK  150  A    between atoms: _345  and  _348
REMARK  151  A    between atoms: _348  and  _349
REMARK  152  A    between atoms: _352  and  _354
REMARK  153  A    between atoms: _354  and  _355
REMARK  154  A    between atoms: _358  and  _360
REMARK  155  A    between atoms: _360  and  _361
REMARK  156  A    between atoms: _360  and  _363
REMARK  157  A    between atoms: _363  and  _364
REMARK  158  A    between atoms: _367  and  _369
REMARK  159  A    between atoms: _369  and  _370
REMARK  160  A    between atoms: _369  and  _372
REMARK  161  A    between atoms: _372  and  _373
REMARK  162  A    between atoms: _376  and  _378
REMARK  163  A    between atoms: _378  and  _379
REMARK  164  A    between atoms: _378  and  _381
REMARK  165  A    between atoms: _381  and  _382
REMARK  166  A    between atoms: _382  and  _383
REMARK  167  A    between atoms: _383  and  _384
REMARK  168  A    between atoms: _393  and  _395
REMARK  169  A    between atoms: _395  and  _396
REMARK  170  A    between atoms: _395  and  _398
REMARK  171  A    between atoms: _398  and  _399
REMARK  172  A    between atoms: _399  and  _400
REMARK  173  A    between atoms: _405  and  _407
REMARK  174  A    between atoms: _407  and  _408
REMARK  175  A    between atoms: _407  and  _410
REMARK  176  A    between atoms: _410  and  _411
REMARK  177  A    between atoms: _411  and  _412
REMARK  178  A    between atoms: _417  and  _419
REMARK  179  A    between atoms: _419  and  _420
REMARK  180  A    between atoms: _419  and  _422
REMARK  181  A    between atoms: _422  and  _423
REMARK  182  A    between atoms: _433  and  _435
REMARK  183  A    between atoms: _435  and  _436
REMARK  184  A    between atoms: _435  and  _438
REMARK  185  A    between atoms: _438  and  _439
REMARK  186  A    between atoms: _442  and  _444
REMARK  187  A    between atoms: _444  and  _445
REMARK  188  A    between atoms: _444  and  _447
REMARK  189  A    between atoms: _447  and  _448
REMARK  190  A    between atoms: _451  and  _453
REMARK  191  A    between atoms: _453  and  _454
REMARK  192  A    between atoms: _453  and  _456
REMARK  193  A    between atoms: _456  and  _457
REMARK  194  A    between atoms: _457  and  _458
REMARK  195  A    between atoms: _458  and  _459
REMARK  196  A    between atoms: _459  and  _460
REMARK  197  A    between atoms: _464  and  _466
REMARK  198  A    between atoms: _466  and  _467
REMARK  199  A    between atoms: _466  and  _469
REMARK  200  A    between atoms: _469  and  _470
REMARK  201  A    between atoms: _470  and  _471
REMARK  202  A    between atoms: _471  and  _472
REMARK  203  A    between atoms: _481  and  _483
REMARK  204  A    between atoms: _483  and  _484
REMARK  205  A    between atoms: _483  and  _486
REMARK  206  A    between atoms: _486  and  _487
REMARK  207  A    between atoms: _490  and  _492
REMARK  208  A    between atoms: _492  and  _493
REMARK  209  A    between atoms: _492  and  _495
REMARK  210  A    between atoms: _498  and  _500
REMARK  211  A    between atoms: _500  and  _501
REMARK  212  A    between atoms: _500  and  _503
REMARK  213  A    between atoms: _503  and  _504
REMARK  214  A    between atoms: _504  and  _505
REMARK  215  A    between atoms: _508  and  _510
REMARK  216  A    between atoms: _510  and  _511
REMARK  217  A    between atoms: _510  and  _513
REMARK  218  A    between atoms: _515  and  _517
REMARK  219  A    between atoms: _517  and  _518
REMARK  220  A    between atoms: _517  and  _520
REMARK  221  A    between atoms: _520  and  _521
REMARK  222  A    between atoms: _521  and  _522
REMARK  223  A    between atoms: _524  and  _526
REMARK  224  A    between atoms: _526  and  _527
REMARK  225  A    between atoms: _526  and  _529
REMARK  226  A    between atoms: _529  and  _530
REMARK  227  A    between atoms: _532  and  _534
REMARK  228  A    between atoms: _534  and  _535
REMARK  229  A    between atoms: _534  and  _537
REMARK  230  A    between atoms: _537  and  _538
REMARK  231  A    between atoms: _541  and  _543
REMARK  232  A    between atoms: _543  and  _544
REMARK  233  A    between atoms: _543  and  _546
REMARK  234  A    between atoms: _546  and  _547
REMARK  235  A    between atoms: _547  and  _548
REMARK  236  A    between atoms: _548  and  _549
REMARK  237  A    between atoms: _558  and  _560
REMARK  238  A    between atoms: _560  and  _561
REMARK  239  A    between atoms: _560  and  _563
REMARK  240  A    between atoms: _566  and  _568
REMARK  241  A    between atoms: _568  and  _569
REMARK  242  A    between atoms: _568  and  _571
REMARK  243  A    between atoms: _571  and  _572
REMARK  244  A    between atoms: _577  and  _578
REMARK                            x       y       z     vdW  Elec       q    Type
REMARK                         _______ _______ _______ _____ _____    ______ ____
ROOT
ATOM      1  O   HOH     1      11.310  14.310  -8.174  0.00  0.00    +0.000 OA
ENDROOT
TORSDOF 0
REMARK  Name = ../refined-set-2016/3hk1/3hk1_pocket.pdb
REMARK  244 active torsions:
REMARK  status: ('A' for Active; 'I' for Inactive)
REMARK    1  A    between atoms: _1  and  _3
REMARK    2  A    between atoms: _3  and  _4
REMARK    3  A    between atoms: _3  and  _6
REMARK    4  A    between atoms: _6  and  _7
REMARK    5  A    between atoms: _10  and  _12
REMARK    6  A    between atoms: _12  and  _13
REMARK    7  A    between atoms: _12  and  _15
REMARK    8  A    between atoms: _18  and  _20
REMARK    9  A    between atoms: _20  and  _21
REMARK   10  A    between atoms: _20  and  _23
REMARK   11  A    between atoms: _23  and  _24
REMARK   12  A    between atoms: _26  and  _28
REMARK   13  A    between atoms: _28  and  _29
REMARK   14  A    between atoms: _28  and  _31
REMARK   15  A    between atoms: _31  and  _32
REMARK   16  A    between atoms: _34  and  _36
REMARK   17  A    between atoms: _36  and  _37
REMARK   18  A    between atoms: _36  and  _39
REMARK   19  A    between atoms: _39  and  _40
REMARK   20  A    between atoms: _46  and  _48
REMARK   21  A    between atoms: _48  and  _49
REMARK   22  A    between atoms: _48  and  _51
REMARK   23  A    between atoms: _51  and  _52
REMARK   24  A    between atoms: _57  and  _58
REMARK   25  A    between atoms: _60  and  _62
REMARK   26  A    between atoms: _62  and  _63
REMARK   27  A    between atoms: _62  and  _65
REMARK   28  A    between atoms: _65  and  _66
REMARK   29  A    between atoms: _66  and  _67
REMARK   30  A    between atoms: _69  and  _71
REMARK   31  A    between atoms: _71  and  _72
REMARK   32  A    between atoms: _71  and  _74
REMARK   33  A    between atoms: _74  and  _75
REMARK   34  A    between atoms: _75  and  _76
REMARK   35  A    between atoms: _76  and  _77
REMARK   36  A    between atoms: _77  and  _78
REMARK   37  A    between atoms: _82  and  _84
REMARK   38  A    between atoms: _84  and  _85
REMARK   39  A    between atoms: _84  and  _87
REMARK   40  A    between atoms: _87  and  _88
REMARK   41  A    between atoms: _88  and  _89
REMARK   42  A    between atoms: _92  and  _94
REMARK   43  A    between atoms: _94  and  _95
REMARK   44  A    between atoms: _94  and  _97
REMARK   45  A    between atoms: _100  and  _102
REMARK   46  A    between atoms: _102  and  _103
REMARK   47  A    between atoms: _105  and  _107
REMARK   48  A    between atoms: _107  and  _108
REMARK   49  A    between atoms: _107  and  _110
REMARK   50  A    between atoms: _113  and  _115
REMARK   51  A    between atoms: _115  and  _116
REMARK   52  A    between atoms: _118  and  _120
REMARK   53  A    between atoms: _120  and  _121
REMARK   54  A    between atoms: _124  and  _126
REMARK   55  A    between atoms: _126  and  _127
REMARK   56  A    between atoms: _126  and  _129
REMARK   57  A    between atoms: _129  and  _130
REMARK   58  A    between atoms: _133  and  _135
REMARK   59  A    between atoms: _135  and  _136
REMARK   60  A    between atoms: _135  and  _138
REMARK   61  A    between atoms: _138  and  _139
REMARK   62  A    between atoms: _139  and  _140
REMARK   63  A    between atoms: _140  and  _141
REMARK   64  A    between atoms: _150  and  _152
REMARK   65  A    between atoms: _152  and  _153
REMARK   66  A    between atoms: _152  and  _155
REMARK   67  A    between atoms: _155  and  _156
REMARK   68  A    between atoms: _156  and  _157
REMARK   69  A    between atoms: _157  and  _158
REMARK   70  A    between atoms: _158  and  _159
REMARK   71  A    between atoms: _163  and  _165
REMARK   72  A    between atoms: _165  and  _166
REMARK   73  A    between atoms: _165  and  _168
REMARK   74  A    between atoms: _171  and  _173
REMARK   75  A    between atoms: _173  and  _174
REMARK   76  A    between atoms: _177  and  _179
REMARK   77  A    between atoms: _179  and  _180
REMARK   78  A    between atoms: _182  and  _184
REMARK   79  A    between atoms: _184  and  _185
REMARK   80  A    between atoms: _184  and  _187
REMARK   81  A    between atoms: _187  and  _188
REMARK   82  A    between atoms: _188  and  _189
REMARK   83  A    between atoms: _191  and  _193
REMARK   84  A    between atoms: _193  and  _194
REMARK   85  A    between atoms: _197  and  _199
REMARK   86  A    between atoms: _199  and  _200
REMARK   87  A    between atoms: _199  and  _202
REMARK   88  A    between atoms: _202  and  _203
REMARK   89  A    between atoms: _203  and  _204
REMARK   90  A    between atoms: _204  and  _205
REMARK   91  A    between atoms: _205  and  _206
REMARK   92  A    between atoms: _211  and  _212
REMARK   93  A    between atoms: _217  and  _219
REMARK   94  A    between atoms: _219  and  _220
REMARK   95  A    between atoms: _219  and  _222
REMARK   96  A    between atoms: _222  and  _223
REMARK   97  A    between atoms: _228  and  _230
REMARK   98  A    between atoms: _230  and  _231
REMARK   99  A    between atoms: _230  and  _233
REMARK  100  A    between atoms: _233  and  _234
REMARK  101  A    between atoms: _234  and  _235
REMARK  102  A    between atoms: _237  and  _239
REMARK  103  A    between atoms: _239  and  _240
REMARK  104  A    between atoms: _239  and  _242
REMARK  105  A    between atoms: _242  and  _243
REMARK  106  A    between atoms: _246  and  _248
REMARK  107  A    between atoms: _248  and  _249
REMARK  108  A    between atoms: _248  and  _251
REMARK  109  A    between atoms: _251  and  _252
REMARK  110  A    between atoms: _252  and  _253
REMARK  111  A    between atoms: _253  and  _254
REMARK  112  A    between atoms: _263  and  _265
REMARK  113  A    between atoms: _265  and  _266
REMARK  114  A    between atoms: _265  and  _268
REMARK  115  A    between atoms: _268  and  _269
REMARK  116  A    between atoms: _271  and  _273
REMARK  117  A    between atoms: _273  and  _274
REMARK  118  A    between atoms: _273  and  _276
REMARK  119  A    between atoms: _276  and  _277
REMARK  120  A    between atoms: _277  and  _278
REMARK  121  A    between atoms: _281  and  _283
REMARK  122  A    between atoms: _283  and  _284
REMARK  123  A    between atoms: _283  and  _286
REMARK  124  A    between atoms: _286  and  _287
REMARK  125  A    between atoms: _289  and  _291
REMARK  126  A    between atoms: _291  and  _292
REMARK  127  A    between atoms: _291  and  _294
REMARK  128  A    between atoms: _294  and  _295
REMARK  129  A    between atoms: _298  and  _300
REMARK  130  A    between atoms: _300  and  _301
REMARK  131  A    between atoms: _300  and  _303
REMARK  132  A    between atoms: _303  and  _304
REMARK  133  A    between atoms: _310  and  _312
REMARK  134  A    between atoms: _312  and  _313
REMARK  135  A    between atoms: _312  and  _315
REMARK  136  A    between atoms: _315  and  _316
REMARK  137  A    between atoms: _316  and  _317
REMARK  138  A    between atoms: _317  and  _318
REMARK  139  A    between atoms: _318  and  _319
REMARK  140  A    between atoms: _323  and  _325
REMARK  141  A    between atoms: _325  and  _326
REMARK  142  A    between atoms: _325  and  _328
REMARK  143  A    between atoms: _328  and  _329
REMARK  144  A    between atoms: _334  and  _336
REMARK  145  A    between atoms: _336  and  _337
REMARK  146  A    between atoms: _336  and  _339
REMARK  147  A    between atoms: _339  and  _340
REMARK  148  A    between atoms: _343  and  _345
REMARK  149  A    between atoms: _345  and  _346
REMARK  150  A    between atoms: _345  and  _348
REMARK  151  A    between atoms: _348  and  _349
REMARK  152  A    between atoms: _352  and  _354
REMARK  153  A    between atoms: _354  and  _355
REMARK  154  A    between atoms: _358  and  _360
REMARK  155  A    between atoms: _360  and  _361
REMARK  156  A    between atoms: _360  and  _363
REMARK  157  A    between atoms: _363  and  _364
REMARK  158  A    between atoms: _367  and  _369
REMARK  159  A    between atoms: _369  and  _370
REMARK  160  A    between atoms: _369  and  _372
REMARK  161  A    between atoms: _372  and  _373
REMARK  162  A    between atoms: _376  and  _378
REMARK  163  A    between atoms: _378  and  _379
REMARK  164  A    between atoms: _378  and  _381
REMARK  165  A    between atoms: _381  and  _382
REMARK  166  A    between atoms: _382  and  _383
REMARK  167  A    between atoms: _383  and  _384
REMARK  168  A    between atoms: _393  and  _395
REMARK  169  A    between atoms: _395  and  _396
REMARK  170  A    between atoms: _395  and  _398
REMARK  171  A    between atoms: _398  and  _399
REMARK  172  A    between atoms: _399  and  _400
REMARK  173  A    between atoms: _405  and  _407
REMARK  174  A    between atoms: _407  and  _408
REMARK  175  A    between atoms: _407  and  _410
REMARK  176  A    between atoms: _410  and  _411
REMARK  177  A    between atoms: _411  and  _412
REMARK  178  A    between atoms: _417  and  _419
REMARK  179  A    between atoms: _419  and  _420
REMARK  180  A    between atoms: _419  and  _422
REMARK  181  A    between atoms: _422  and  _423
REMARK  182  A    between atoms: _433  and  _435
REMARK  183  A    between atoms: _435  and  _436
REMARK  184  A    between atoms: _435  and  _438
REMARK  185  A    between atoms: _438  and  _439
REMARK  186  A    between atoms: _442  and  _444
REMARK  187  A    between atoms: _444  and  _445
REMARK  188  A    between atoms: _444  and  _447
REMARK  189  A    between atoms: _447  and  _448
REMARK  190  A    between atoms: _451  and  _453
REMARK  191  A    between atoms: _453  and  _454
REMARK  192  A    between atoms: _453  and  _456
REMARK  193  A    between atoms: _456  and  _457
REMARK  194  A    between atoms: _457  and  _458
REMARK  195  A    between atoms: _458  and  _459
REMARK  196  A    between atoms: _459  and  _460
REMARK  197  A    between atoms: _464  and  _466
REMARK  198  A    between atoms: _466  and  _467
REMARK  199  A    between atoms: _466  and  _469
REMARK  200  A    between atoms: _469  and  _470
REMARK  201  A    between atoms: _470  and  _471
REMARK  202  A    between atoms: _471  and  _472
REMARK  203  A    between atoms: _481  and  _483
REMARK  204  A    between atoms: _483  and  _484
REMARK  205  A    between atoms: _483  and  _486
REMARK  206  A    between atoms: _486  and  _487
REMARK  207  A    between atoms: _490  and  _492
REMARK  208  A    between atoms: _492  and  _493
REMARK  209  A    between atoms: _492  and  _495
REMARK  210  A    between atoms: _498  and  _500
REMARK  211  A    between atoms: _500  and  _501
REMARK  212  A    between atoms: _500  and  _503
REMARK  213  A    between atoms: _503  and  _504
REMARK  214  A    between atoms: _504  and  _505
REMARK  215  A    between atoms: _508  and  _510
REMARK  216  A    between atoms: _510  and  _511
REMARK  217  A    between atoms: _510  and  _513
REMARK  218  A    between atoms: _515  and  _517
REMARK  219  A    between atoms: _517  and  _518
REMARK  220  A    between atoms: _517  and  _520
REMARK  221  A    between atoms: _520  and  _521
REMARK  222  A    between atoms: _521  and  _522
REMARK  223  A    between atoms: _524  and  _526
REMARK  224  A    between atoms: _526  and  _527
REMARK  225  A    between atoms: _526  and  _529
REMARK  226  A    between atoms: _529  and  _530
REMARK  227  A    between atoms: _532  and  _534
REMARK  228  A    between atoms: _534  and  _535
REMARK  229  A    between atoms: _534  and  _537
REMARK  230  A    between atoms: _537  and  _538
REMARK  231  A    between atoms: _541  and  _543
REMARK  232  A    between atoms: _543  and  _544
REMARK  233  A    between atoms: _543  and  _546
REMARK  234  A    between atoms: _546  and  _547
REMARK  235  A    between atoms: _547  and  _548
REMARK  236  A    between atoms: _548  and  _549
REMARK  237  A    between atoms: _558  and  _560
REMARK  238  A    between atoms: _560  and  _561
REMARK  239  A    between atoms: _560  and  _563
REMARK  240  A    between atoms: _566  and  _568
REMARK  241  A    between atoms: _568  and  _569
REMARK  242  A    between atoms: _568  and  _571
REMARK  243  A    between atoms: _571  and  _572
REMARK  244  A    between atoms: _577  and  _578
REMARK                            x       y       z     vdW  Elec       q    Type
REMARK                         _______ _______ _______ _____ _____    ______ ____
ROOT
ATOM      1  O   HOH     1      14.646  26.622  -3.491  0.00  0.00    +0.000 OA
ENDROOT
TORSDOF 0
REMARK  Name = ../refined-set-2016/3hk1/3hk1_pocket.pdb
REMARK  244 active torsions:
REMARK  status: ('A' for Active; 'I' for Inactive)
REMARK    1  A    between atoms: _1  and  _3
REMARK    2  A    between atoms: _3  and  _4
REMARK    3  A    between atoms: _3  and  _6
REMARK    4  A    between atoms: _6  and  _7
REMARK    5  A    between atoms: _10  and  _12
REMARK    6  A    between atoms: _12  and  _13
REMARK    7  A    between atoms: _12  and  _15
REMARK    8  A    between atoms: _18  and  _20
REMARK    9  A    between atoms: _20  and  _21
REMARK   10  A    between atoms: _20  and  _23
REMARK   11  A    between atoms: _23  and  _24
REMARK   12  A    between atoms: _26  and  _28
REMARK   13  A    between atoms: _28  and  _29
REMARK   14  A    between atoms: _28  and  _31
REMARK   15  A    between atoms: _31  and  _32
REMARK   16  A    between atoms: _34  and  _36
REMARK   17  A    between atoms: _36  and  _37
REMARK   18  A    between atoms: _36  and  _39
REMARK   19  A    between atoms: _39  and  _40
REMARK   20  A    between atoms: _46  and  _48
REMARK   21  A    between atoms: _48  and  _49
REMARK   22  A    between atoms: _48  and  _51
REMARK   23  A    between atoms: _51  and  _52
REMARK   24  A    between atoms: _57  and  _58
REMARK   25  A    between atoms: _60  and  _62
REMARK   26  A    between atoms: _62  and  _63
REMARK   27  A    between atoms: _62  and  _65
REMARK   28  A    between atoms: _65  and  _66
REMARK   29  A    between atoms: _66  and  _67
REMARK   30  A    between atoms: _69  and  _71
REMARK   31  A    between atoms: _71  and  _72
REMARK   32  A    between atoms: _71  and  _74
REMARK   33  A    between atoms: _74  and  _75
REMARK   34  A    between atoms: _75  and  _76
REMARK   35  A    between atoms: _76  and  _77
REMARK   36  A    between atoms: _77  and  _78
REMARK   37  A    between atoms: _82  and  _84
REMARK   38  A    between atoms: _84  and  _85
REMARK   39  A    between atoms: _84  and  _87
REMARK   40  A    between atoms: _87  and  _88
REMARK   41  A    between atoms: _88  and  _89
REMARK   42  A    between atoms: _92  and  _94
REMARK   43  A    between atoms: _94  and  _95
REMARK   44  A    between atoms: _94  and  _97
REMARK   45  A    between atoms: _100  and  _102
REMARK   46  A    between atoms: _102  and  _103
REMARK   47  A    between atoms: _105  and  _107
REMARK   48  A    between atoms: _107  and  _108
REMARK   49  A    between atoms: _107  and  _110
REMARK   50  A    between atoms: _113  and  _115
REMARK   51  A    between atoms: _115  and  _116
REMARK   52  A    between atoms: _118  and  _120
REMARK   53  A    between atoms: _120  and  _121
REMARK   54  A    between atoms: _124  and  _126
REMARK   55  A    between atoms: _126  and  _127
REMARK   56  A    between atoms: _126  and  _129
REMARK   57  A    between atoms: _129  and  _130
REMARK   58  A    between atoms: _133  and  _135
REMARK   59  A    between atoms: _135  and  _136
REMARK   60  A    between atoms: _135  and  _138
REMARK   61  A    between atoms: _138  and  _139
REMARK   62  A    between atoms: _139  and  _140
REMARK   63  A    between atoms: _140  and  _141
REMARK   64  A    between atoms: _150  and  _152
REMARK   65  A    between atoms: _152  and  _153
REMARK   66  A    between atoms: _152  and  _155
REMARK   67  A    between atoms: _155  and  _156
REMARK   68  A    between atoms: _156  and  _157
REMARK   69  A    between atoms: _157  and  _158
REMARK   70  A    between atoms: _158  and  _159
REMARK   71  A    between atoms: _163  and  _165
REMARK   72  A    between atoms: _165  and  _166
REMARK   73  A    between atoms: _165  and  _168
REMARK   74  A    between atoms: _171  and  _173
REMARK   75  A    between atoms: _173  and  _174
REMARK   76  A    between atoms: _177  and  _179
REMARK   77  A    between atoms: _179  and  _180
REMARK   78  A    between atoms: _182  and  _184
REMARK   79  A    between atoms: _184  and  _185
REMARK   80  A    between atoms: _184  and  _187
REMARK   81  A    between atoms: _187  and  _188
REMARK   82  A    between atoms: _188  and  _189
REMARK   83  A    between atoms: _191  and  _193
REMARK   84  A    between atoms: _193  and  _194
REMARK   85  A    between atoms: _197  and  _199
REMARK   86  A    between atoms: _199  and  _200
REMARK   87  A    between atoms: _199  and  _202
REMARK   88  A    between atoms: _202  and  _203
REMARK   89  A    between atoms: _203  and  _204
REMARK   90  A    between atoms: _204  and  _205
REMARK   91  A    between atoms: _205  and  _206
REMARK   92  A    between atoms: _211  and  _212
REMARK   93  A    between atoms: _217  and  _219
REMARK   94  A    between atoms: _219  and  _220
REMARK   95  A    between atoms: _219  and  _222
REMARK   96  A    between atoms: _222  and  _223
REMARK   97  A    between atoms: _228  and  _230
REMARK   98  A    between atoms: _230  and  _231
REMARK   99  A    between atoms: _230  and  _233
REMARK  100  A    between atoms: _233  and  _234
REMARK  101  A    between atoms: _234  and  _235
REMARK  102  A    between atoms: _237  and  _239
REMARK  103  A    between atoms: _239  and  _240
REMARK  104  A    between atoms: _239  and  _242
REMARK  105  A    between atoms: _242  and  _243
REMARK  106  A    between atoms: _246  and  _248
REMARK  107  A    between atoms: _248  and  _249
REMARK  108  A    between atoms: _248  and  _251
REMARK  109  A    between atoms: _251  and  _252
REMARK  110  A    between atoms: _252  and  _253
REMARK  111  A    between atoms: _253  and  _254
REMARK  112  A    between atoms: _263  and  _265
REMARK  113  A    between atoms: _265  and  _266
REMARK  114  A    between atoms: _265  and  _268
REMARK  115  A    between atoms: _268  and  _269
REMARK  116  A    between atoms: _271  and  _273
REMARK  117  A    between atoms: _273  and  _274
REMARK  118  A    between atoms: _273  and  _276
REMARK  119  A    between atoms: _276  and  _277
REMARK  120  A    between atoms: _277  and  _278
REMARK  121  A    between atoms: _281  and  _283
REMARK  122  A    between atoms: _283  and  _284
REMARK  123  A    between atoms: _283  and  _286
REMARK  124  A    between atoms: _286  and  _287
REMARK  125  A    between atoms: _289  and  _291
REMARK  126  A    between atoms: _291  and  _292
REMARK  127  A    between atoms: _291  and  _294
REMARK  128  A    between atoms: _294  and  _295
REMARK  129  A    between atoms: _298  and  _300
REMARK  130  A    between atoms: _300  and  _301
REMARK  131  A    between atoms: _300  and  _303
REMARK  132  A    between atoms: _303  and  _304
REMARK  133  A    between atoms: _310  and  _312
REMARK  134  A    between atoms: _312  and  _313
REMARK  135  A    between atoms: _312  and  _315
REMARK  136  A    between atoms: _315  and  _316
REMARK  137  A    between atoms: _316  and  _317
REMARK  138  A    between atoms: _317  and  _318
REMARK  139  A    between atoms: _318  and  _319
REMARK  140  A    between atoms: _323  and  _325
REMARK  141  A    between atoms: _325  and  _326
REMARK  142  A    between atoms: _325  and  _328
REMARK  143  A    between atoms: _328  and  _329
REMARK  144  A    between atoms: _334  and  _336
REMARK  145  A    between atoms: _336  and  _337
REMARK  146  A    between atoms: _336  and  _339
REMARK  147  A    between atoms: _339  and  _340
REMARK  148  A    between atoms: _343  and  _345
REMARK  149  A    between atoms: _345  and  _346
REMARK  150  A    between atoms: _345  and  _348
REMARK  151  A    between atoms: _348  and  _349
REMARK  152  A    between atoms: _352  and  _354
REMARK  153  A    between atoms: _354  and  _355
REMARK  154  A    between atoms: _358  and  _360
REMARK  155  A    between atoms: _360  and  _361
REMARK  156  A    between atoms: _360  and  _363
REMARK  157  A    between atoms: _363  and  _364
REMARK  158  A    between atoms: _367  and  _369
REMARK  159  A    between atoms: _369  and  _370
REMARK  160  A    between atoms: _369  and  _372
REMARK  161  A    between atoms: _372  and  _373
REMARK  162  A    between atoms: _376  and  _378
REMARK  163  A    between atoms: _378  and  _379
REMARK  164  A    between atoms: _378  and  _381
REMARK  165  A    between atoms: _381  and  _382
REMARK  166  A    between atoms: _382  and  _383
REMARK  167  A    between atoms: _383  and  _384
REMARK  168  A    between atoms: _393  and  _395
REMARK  169  A    between atoms: _395  and  _396
REMARK  170  A    between atoms: _395  and  _398
REMARK  171  A    between atoms: _398  and  _399
REMARK  172  A    between atoms: _399  and  _400
REMARK  173  A    between atoms: _405  and  _407
REMARK  174  A    between atoms: _407  and  _408
REMARK  175  A    between atoms: _407  and  _410
REMARK  176  A    between atoms: _410  and  _411
REMARK  177  A    between atoms: _411  and  _412
REMARK  178  A    between atoms: _417  and  _419
REMARK  179  A    between atoms: _419  and  _420
REMARK  180  A    between atoms: _419  and  _422
REMARK  181  A    between atoms: _422  and  _423
REMARK  182  A    between atoms: _433  and  _435
REMARK  183  A    between atoms: _435  and  _436
REMARK  184  A    between atoms: _435  and  _438
REMARK  185  A    between atoms: _438  and  _439
REMARK  186  A    between atoms: _442  and  _444
REMARK  187  A    between atoms: _444  and  _445
REMARK  188  A    between atoms: _444  and  _447
REMARK  189  A    between atoms: _447  and  _448
REMARK  190  A    between atoms: _451  and  _453
REMARK  191  A    between atoms: _453  and  _454
REMARK  192  A    between atoms: _453  and  _456
REMARK  193  A    between atoms: _456  and  _457
REMARK  194  A    between atoms: _457  and  _458
REMARK  195  A    between atoms: _458  and  _459
REMARK  196  A    between atoms: _459  and  _460
REMARK  197  A    between atoms: _464  and  _466
REMARK  198  A    between atoms: _466  and  _467
REMARK  199  A    between atoms: _466  and  _469
REMARK  200  A    between atoms: _469  and  _470
REMARK  201  A    between atoms: _470  and  _471
REMARK  202  A    between atoms: _471  and  _472
REMARK  203  A    between atoms: _481  and  _483
REMARK  204  A    between atoms: _483  and  _484
REMARK  205  A    between atoms: _483  and  _486
REMARK  206  A    between atoms: _486  and  _487
REMARK  207  A    between atoms: _490  and  _492
REMARK  208  A    between atoms: _492  and  _493
REMARK  209  A    between atoms: _492  and  _495
REMARK  210  A    between atoms: _498  and  _500
REMARK  211  A    between atoms: _500  and  _501
REMARK  212  A    between atoms: _500  and  _503
REMARK  213  A    between atoms: _503  and  _504
REMARK  214  A    between atoms: _504  and  _505
REMARK  215  A    between atoms: _508  and  _510
REMARK  216  A    between atoms: _510  and  _511
REMARK  217  A    between atoms: _510  and  _513
REMARK  218  A    between atoms: _515  and  _517
REMARK  219  A    between atoms: _517  and  _518
REMARK  220  A    between atoms: _517  and  _520
REMARK  221  A    between atoms: _520  and  _521
REMARK  222  A    between atoms: _521  and  _522
REMARK  223  A    between atoms: _524  and  _526
REMARK  224  A    between atoms: _526  and  _527
REMARK  225  A    between atoms: _526  and  _529
REMARK  226  A    between atoms: _529  and  _530
REMARK  227  A    between atoms: _532  and  _534
REMARK  228  A    between atoms: _534  and  _535
REMARK  229  A    between atoms: _534  and  _537
REMARK  230  A    between atoms: _537  and  _538
REMARK  231  A    between atoms: _541  and  _543
REMARK  232  A    between atoms: _543  and  _544
REMARK  233  A    between atoms: _543  and  _546
REMARK  234  A    between atoms: _546  and  _547
REMARK  235  A    between atoms: _547  and  _548
REMARK  236  A    between atoms: _548  and  _549
REMARK  237  A    between atoms: _558  and  _560
REMARK  238  A    between atoms: _560  and  _561
REMARK  239  A    between atoms: _560  and  _563
REMARK  240  A    between atoms: _566  and  _568
REMARK  241  A    between atoms: _568  and  _569
REMARK  242  A    between atoms: _568  and  _571
REMARK  243  A    between atoms: _571  and  _572
REMARK  244  A    between atoms: _577  and  _578
REMARK                            x       y       z     vdW  Elec       q    Type
REMARK                         _______ _______ _______ _____ _____    ______ ____
ROOT
ATOM      1  O   HOH     1      15.211  19.630 -16.912  0.00  0.00    +0.000 OA
ENDROOT
TORSDOF 0
REMARK  Name = ../refined-set-2016/3hk1/3hk1_pocket.pdb
REMARK  244 active torsions:
REMARK  status: ('A' for Active; 'I' for Inactive)
REMARK    1  A    between atoms: _1  and  _3
REMARK    2  A    between atoms: _3  and  _4
REMARK    3  A    between atoms: _3  and  _6
REMARK    4  A    between atoms: _6  and  _7
REMARK    5  A    between atoms: _10  and  _12
REMARK    6  A    between atoms: _12  and  _13
REMARK    7  A    between atoms: _12  and  _15
REMARK    8  A    between atoms: _18  and  _20
REMARK    9  A    between atoms: _20  and  _21
REMARK   10  A    between atoms: _20  and  _23
REMARK   11  A    between atoms: _23  and  _24
REMARK   12  A    between atoms: _26  and  _28
REMARK   13  A    between atoms: _28  and  _29
REMARK   14  A    between atoms: _28  and  _31
REMARK   15  A    between atoms: _31  and  _32
REMARK   16  A    between atoms: _34  and  _36
REMARK   17  A    between atoms: _36  and  _37
REMARK   18  A    between atoms: _36  and  _39
REMARK   19  A    between atoms: _39  and  _40
REMARK   20  A    between atoms: _46  and  _48
REMARK   21  A    between atoms: _48  and  _49
REMARK   22  A    between atoms: _48  and  _51
REMARK   23  A    between atoms: _51  and  _52
REMARK   24  A    between atoms: _57  and  _58
REMARK   25  A    between atoms: _60  and  _62
REMARK   26  A    between atoms: _62  and  _63
REMARK   27  A    between atoms: _62  and  _65
REMARK   28  A    between atoms: _65  and  _66
REMARK   29  A    between atoms: _66  and  _67
REMARK   30  A    between atoms: _69  and  _71
REMARK   31  A    between atoms: _71  and  _72
REMARK   32  A    between atoms: _71  and  _74
REMARK   33  A    between atoms: _74  and  _75
REMARK   34  A    between atoms: _75  and  _76
REMARK   35  A    between atoms: _76  and  _77
REMARK   36  A    between atoms: _77  and  _78
REMARK   37  A    between atoms: _82  and  _84
REMARK   38  A    between atoms: _84  and  _85
REMARK   39  A    between atoms: _84  and  _87
REMARK   40  A    between atoms: _87  and  _88
REMARK   41  A    between atoms: _88  and  _89
REMARK   42  A    between atoms: _92  and  _94
REMARK   43  A    between atoms: _94  and  _95
REMARK   44  A    between atoms: _94  and  _97
REMARK   45  A    between atoms: _100  and  _102
REMARK   46  A    between atoms: _102  and  _103
REMARK   47  A    between atoms: _105  and  _107
REMARK   48  A    between atoms: _107  and  _108
REMARK   49  A    between atoms: _107  and  _110
REMARK   50  A    between atoms: _113  and  _115
REMARK   51  A    between atoms: _115  and  _116
REMARK   52  A    between atoms: _118  and  _120
REMARK   53  A    between atoms: _120  and  _121
REMARK   54  A    between atoms: _124  and  _126
REMARK   55  A    between atoms: _126  and  _127
REMARK   56  A    between atoms: _126  and  _129
REMARK   57  A    between atoms: _129  and  _130
REMARK   58  A    between atoms: _133  and  _135
REMARK   59  A    between atoms: _135  and  _136
REMARK   60  A    between atoms: _135  and  _138
REMARK   61  A    between atoms: _138  and  _139
REMARK   62  A    between atoms: _139  and  _140
REMARK   63  A    between atoms: _140  and  _141
REMARK   64  A    between atoms: _150  and  _152
REMARK   65  A    between atoms: _152  and  _153
REMARK   66  A    between atoms: _152  and  _155
REMARK   67  A    between atoms: _155  and  _156
REMARK   68  A    between atoms: _156  and  _157
REMARK   69  A    between atoms: _157  and  _158
REMARK   70  A    between atoms: _158  and  _159
REMARK   71  A    between atoms: _163  and  _165
REMARK   72  A    between atoms: _165  and  _166
REMARK   73  A    between atoms: _165  and  _168
REMARK   74  A    between atoms: _171  and  _173
REMARK   75  A    between atoms: _173  and  _174
REMARK   76  A    between atoms: _177  and  _179
REMARK   77  A    between atoms: _179  and  _180
REMARK   78  A    between atoms: _182  and  _184
REMARK   79  A    between atoms: _184  and  _185
REMARK   80  A    between atoms: _184  and  _187
REMARK   81  A    between atoms: _187  and  _188
REMARK   82  A    between atoms: _188  and  _189
REMARK   83  A    between atoms: _191  and  _193
REMARK   84  A    between atoms: _193  and  _194
REMARK   85  A    between atoms: _197  and  _199
REMARK   86  A    between atoms: _199  and  _200
REMARK   87  A    between atoms: _199  and  _202
REMARK   88  A    between atoms: _202  and  _203
REMARK   89  A    between atoms: _203  and  _204
REMARK   90  A    between atoms: _204  and  _205
REMARK   91  A    between atoms: _205  and  _206
REMARK   92  A    between atoms: _211  and  _212
REMARK   93  A    between atoms: _217  and  _219
REMARK   94  A    between atoms: _219  and  _220
REMARK   95  A    between atoms: _219  and  _222
REMARK   96  A    between atoms: _222  and  _223
REMARK   97  A    between atoms: _228  and  _230
REMARK   98  A    between atoms: _230  and  _231
REMARK   99  A    between atoms: _230  and  _233
REMARK  100  A    between atoms: _233  and  _234
REMARK  101  A    between atoms: _234  and  _235
REMARK  102  A    between atoms: _237  and  _239
REMARK  103  A    between atoms: _239  and  _240
REMARK  104  A    between atoms: _239  and  _242
REMARK  105  A    between atoms: _242  and  _243
REMARK  106  A    between atoms: _246  and  _248
REMARK  107  A    between atoms: _248  and  _249
REMARK  108  A    between atoms: _248  and  _251
REMARK  109  A    between atoms: _251  and  _252
REMARK  110  A    between atoms: _252  and  _253
REMARK  111  A    between atoms: _253  and  _254
REMARK  112  A    between atoms: _263  and  _265
REMARK  113  A    between atoms: _265  and  _266
REMARK  114  A    between atoms: _265  and  _268
REMARK  115  A    between atoms: _268  and  _269
REMARK  116  A    between atoms: _271  and  _273
REMARK  117  A    between atoms: _273  and  _274
REMARK  118  A    between atoms: _273  and  _276
REMARK  119  A    between atoms: _276  and  _277
REMARK  120  A    between atoms: _277  and  _278
REMARK  121  A    between atoms: _281  and  _283
REMARK  122  A    between atoms: _283  and  _284
REMARK  123  A    between atoms: _283  and  _286
REMARK  124  A    between atoms: _286  and  _287
REMARK  125  A    between atoms: _289  and  _291
REMARK  126  A    between atoms: _291  and  _292
REMARK  127  A    between atoms: _291  and  _294
REMARK  128  A    between atoms: _294  and  _295
REMARK  129  A    between atoms: _298  and  _300
REMARK  130  A    between atoms: _300  and  _301
REMARK  131  A    between atoms: _300  and  _303
REMARK  132  A    between atoms: _303  and  _304
REMARK  133  A    between atoms: _310  and  _312
REMARK  134  A    between atoms: _312  and  _313
REMARK  135  A    between atoms: _312  and  _315
REMARK  136  A    between atoms: _315  and  _316
REMARK  137  A    between atoms: _316  and  _317
REMARK  138  A    between atoms: _317  and  _318
REMARK  139  A    between atoms: _318  and  _319
REMARK  140  A    between atoms: _323  and  _325
REMARK  141  A    between atoms: _325  and  _326
REMARK  142  A    between atoms: _325  and  _328
REMARK  143  A    between atoms: _328  and  _329
REMARK  144  A    between atoms: _334  and  _336
REMARK  145  A    between atoms: _336  and  _337
REMARK  146  A    between atoms: _336  and  _339
REMARK  147  A    between atoms: _339  and  _340
REMARK  148  A    between atoms: _343  and  _345
REMARK  149  A    between atoms: _345  and  _346
REMARK  150  A    between atoms: _345  and  _348
REMARK  151  A    between atoms: _348  and  _349
REMARK  152  A    between atoms: _352  and  _354
REMARK  153  A    between atoms: _354  and  _355
REMARK  154  A    between atoms: _358  and  _360
REMARK  155  A    between atoms: _360  and  _361
REMARK  156  A    between atoms: _360  and  _363
REMARK  157  A    between atoms: _363  and  _364
REMARK  158  A    between atoms: _367  and  _369
REMARK  159  A    between atoms: _369  and  _370
REMARK  160  A    between atoms: _369  and  _372
REMARK  161  A    between atoms: _372  and  _373
REMARK  162  A    between atoms: _376  and  _378
REMARK  163  A    between atoms: _378  and  _379
REMARK  164  A    between atoms: _378  and  _381
REMARK  165  A    between atoms: _381  and  _382
REMARK  166  A    between atoms: _382  and  _383
REMARK  167  A    between atoms: _383  and  _384
REMARK  168  A    between atoms: _393  and  _395
REMARK  169  A    between atoms: _395  and  _396
REMARK  170  A    between atoms: _395  and  _398
REMARK  171  A    between atoms: _398  and  _399
REMARK  172  A    between atoms: _399  and  _400
REMARK  173  A    between atoms: _405  and  _407
REMARK  174  A    between atoms: _407  and  _408
REMARK  175  A    between atoms: _407  and  _410
REMARK  176  A    between atoms: _410  and  _411
REMARK  177  A    between atoms: _411  and  _412
REMARK  178  A    between atoms: _417  and  _419
REMARK  179  A    between atoms: _419  and  _420
REMARK  180  A    between atoms: _419  and  _422
REMARK  181  A    between atoms: _422  and  _423
REMARK  182  A    between atoms: _433  and  _435
REMARK  183  A    between atoms: _435  and  _436
REMARK  184  A    between atoms: _435  and  _438
REMARK  185  A    between atoms: _438  and  _439
REMARK  186  A    between atoms: _442  and  _444
REMARK  187  A    between atoms: _444  and  _445
REMARK  188  A    between atoms: _444  and  _447
REMARK  189  A    between atoms: _447  and  _448
REMARK  190  A    between atoms: _451  and  _453
REMARK  191  A    between atoms: _453  and  _454
REMARK  192  A    between atoms: _453  and  _456
REMARK  193  A    between atoms: _456  and  _457
REMARK  194  A    between atoms: _457  and  _458
REMARK  195  A    between atoms: _458  and  _459
REMARK  196  A    between atoms: _459  and  _460
REMARK  197  A    between atoms: _464  and  _466
REMARK  198  A    between atoms: _466  and  _467
REMARK  199  A    between atoms: _466  and  _469
REMARK  200  A    between atoms: _469  and  _470
REMARK  201  A    between atoms: _470  and  _471
REMARK  202  A    between atoms: _471  and  _472
REMARK  203  A    between atoms: _481  and  _483
REMARK  204  A    between atoms: _483  and  _484
REMARK  205  A    between atoms: _483  and  _486
REMARK  206  A    between atoms: _486  and  _487
REMARK  207  A    between atoms: _490  and  _492
REMARK  208  A    between atoms: _492  and  _493
REMARK  209  A    between atoms: _492  and  _495
REMARK  210  A    between atoms: _498  and  _500
REMARK  211  A    between atoms: _500  and  _501
REMARK  212  A    between atoms: _500  and  _503
REMARK  213  A    between atoms: _503  and  _504
REMARK  214  A    between atoms: _504  and  _505
REMARK  215  A    between atoms: _508  and  _510
REMARK  216  A    between atoms: _510  and  _511
REMARK  217  A    between atoms: _510  and  _513
REMARK  218  A    between atoms: _515  and  _517
REMARK  219  A    between atoms: _517  and  _518
REMARK  220  A    between atoms: _517  and  _520
REMARK  221  A    between atoms: _520  and  _521
REMARK  222  A    between atoms: _521  and  _522
REMARK  223  A    between atoms: _524  and  _526
REMARK  224  A    between atoms: _526  and  _527
REMARK  225  A    between atoms: _526  and  _529
REMARK  226  A    between atoms: _529  and  _530
REMARK  227  A    between atoms: _532  and  _534
REMARK  228  A    between atoms: _534  and  _535
REMARK  229  A    between atoms: _534  and  _537
REMARK  230  A    between atoms: _537  and  _538
REMARK  231  A    between atoms: _541  and  _543
REMARK  232  A    between atoms: _543  and  _544
REMARK  233  A    between atoms: _543  and  _546
REMARK  234  A    between atoms: _546  and  _547
REMARK  235  A    between atoms: _547  and  _548
REMARK  236  A    between atoms: _548  and  _549
REMARK  237  A    between atoms: _558  and  _560
REMARK  238  A    between atoms: _560  and  _561
REMARK  239  A    between atoms: _560  and  _563
REMARK  240  A    between atoms: _566  and  _568
REMARK  241  A    between atoms: _568  and  _569
REMARK  242  A    between atoms: _568  and  _571
REMARK  243  A    between atoms: _571  and  _572
REMARK  244  A    between atoms: _577  and  _578
REMARK                            x       y       z     vdW  Elec       q    Type
REMARK                         _______ _______ _______ _____ _____    ______ ____
ROOT
ATOM      1  O   HOH     1       6.215  21.299 -17.030  0.00  0.00    +0.000 OA
ENDROOT
TORSDOF 0
REMARK  Name = ../refined-set-2016/3hk1/3hk1_pocket.pdb
REMARK  244 active torsions:
REMARK  status: ('A' for Active; 'I' for Inactive)
REMARK    1  A    between atoms: _1  and  _3
REMARK    2  A    between atoms: _3  and  _4
REMARK    3  A    between atoms: _3  and  _6
REMARK    4  A    between atoms: _6  and  _7
REMARK    5  A    between atoms: _10  and  _12
REMARK    6  A    between atoms: _12  and  _13
REMARK    7  A    between atoms: _12  and  _15
REMARK    8  A    between atoms: _18  and  _20
REMARK    9  A    between atoms: _20  and  _21
REMARK   10  A    between atoms: _20  and  _23
REMARK   11  A    between atoms: _23  and  _24
REMARK   12  A    between atoms: _26  and  _28
REMARK   13  A    between atoms: _28  and  _29
REMARK   14  A    between atoms: _28  and  _31
REMARK   15  A    between atoms: _31  and  _32
REMARK   16  A    between atoms: _34  and  _36
REMARK   17  A    between atoms: _36  and  _37
REMARK   18  A    between atoms: _36  and  _39
REMARK   19  A    between atoms: _39  and  _40
REMARK   20  A    between atoms: _46  and  _48
REMARK   21  A    between atoms: _48  and  _49
REMARK   22  A    between atoms: _48  and  _51
REMARK   23  A    between atoms: _51  and  _52
REMARK   24  A    between atoms: _57  and  _58
REMARK   25  A    between atoms: _60  and  _62
REMARK   26  A    between atoms: _62  and  _63
REMARK   27  A    between atoms: _62  and  _65
REMARK   28  A    between atoms: _65  and  _66
REMARK   29  A    between atoms: _66  and  _67
REMARK   30  A    between atoms: _69  and  _71
REMARK   31  A    between atoms: _71  and  _72
REMARK   32  A    between atoms: _71  and  _74
REMARK   33  A    between atoms: _74  and  _75
REMARK   34  A    between atoms: _75  and  _76
REMARK   35  A    between atoms: _76  and  _77
REMARK   36  A    between atoms: _77  and  _78
REMARK   37  A    between atoms: _82  and  _84
REMARK   38  A    between atoms: _84  and  _85
REMARK   39  A    between atoms: _84  and  _87
REMARK   40  A    between atoms: _87  and  _88
REMARK   41  A    between atoms: _88  and  _89
REMARK   42  A    between atoms: _92  and  _94
REMARK   43  A    between atoms: _94  and  _95
REMARK   44  A    between atoms: _94  and  _97
REMARK   45  A    between atoms: _100  and  _102
REMARK   46  A    between atoms: _102  and  _103
REMARK   47  A    between atoms: _105  and  _107
REMARK   48  A    between atoms: _107  and  _108
REMARK   49  A    between atoms: _107  and  _110
REMARK   50  A    between atoms: _113  and  _115
REMARK   51  A    between atoms: _115  and  _116
REMARK   52  A    between atoms: _118  and  _120
REMARK   53  A    between atoms: _120  and  _121
REMARK   54  A    between atoms: _124  and  _126
REMARK   55  A    between atoms: _126  and  _127
REMARK   56  A    between atoms: _126  and  _129
REMARK   57  A    between atoms: _129  and  _130
REMARK   58  A    between atoms: _133  and  _135
REMARK   59  A    between atoms: _135  and  _136
REMARK   60  A    between atoms: _135  and  _138
REMARK   61  A    between atoms: _138  and  _139
REMARK   62  A    between atoms: _139  and  _140
REMARK   63  A    between atoms: _140  and  _141
REMARK   64  A    between atoms: _150  and  _152
REMARK   65  A    between atoms: _152  and  _153
REMARK   66  A    between atoms: _152  and  _155
REMARK   67  A    between atoms: _155  and  _156
REMARK   68  A    between atoms: _156  and  _157
REMARK   69  A    between atoms: _157  and  _158
REMARK   70  A    between atoms: _158  and  _159
REMARK   71  A    between atoms: _163  and  _165
REMARK   72  A    between atoms: _165  and  _166
REMARK   73  A    between atoms: _165  and  _168
REMARK   74  A    between atoms: _171  and  _173
REMARK   75  A    between atoms: _173  and  _174
REMARK   76  A    between atoms: _177  and  _179
REMARK   77  A    between atoms: _179  and  _180
REMARK   78  A    between atoms: _182  and  _184
REMARK   79  A    between atoms: _184  and  _185
REMARK   80  A    between atoms: _184  and  _187
REMARK   81  A    between atoms: _187  and  _188
REMARK   82  A    between atoms: _188  and  _189
REMARK   83  A    between atoms: _191  and  _193
REMARK   84  A    between atoms: _193  and  _194
REMARK   85  A    between atoms: _197  and  _199
REMARK   86  A    between atoms: _199  and  _200
REMARK   87  A    between atoms: _199  and  _202
REMARK   88  A    between atoms: _202  and  _203
REMARK   89  A    between atoms: _203  and  _204
REMARK   90  A    between atoms: _204  and  _205
REMARK   91  A    between atoms: _205  and  _206
REMARK   92  A    between atoms: _211  and  _212
REMARK   93  A    between atoms: _217  and  _219
REMARK   94  A    between atoms: _219  and  _220
REMARK   95  A    between atoms: _219  and  _222
REMARK   96  A    between atoms: _222  and  _223
REMARK   97  A    between atoms: _228  and  _230
REMARK   98  A    between atoms: _230  and  _231
REMARK   99  A    between atoms: _230  and  _233
REMARK  100  A    between atoms: _233  and  _234
REMARK  101  A    between atoms: _234  and  _235
REMARK  102  A    between atoms: _237  and  _239
REMARK  103  A    between atoms: _239  and  _240
REMARK  104  A    between atoms: _239  and  _242
REMARK  105  A    between atoms: _242  and  _243
REMARK  106  A    between atoms: _246  and  _248
REMARK  107  A    between atoms: _248  and  _249
REMARK  108  A    between atoms: _248  and  _251
REMARK  109  A    between atoms: _251  and  _252
REMARK  110  A    between atoms: _252  and  _253
REMARK  111  A    between atoms: _253  and  _254
REMARK  112  A    between atoms: _263  and  _265
REMARK  113  A    between atoms: _265  and  _266
REMARK  114  A    between atoms: _265  and  _268
REMARK  115  A    between atoms: _268  and  _269
REMARK  116  A    between atoms: _271  and  _273
REMARK  117  A    between atoms: _273  and  _274
REMARK  118  A    between atoms: _273  and  _276
REMARK  119  A    between atoms: _276  and  _277
REMARK  120  A    between atoms: _277  and  _278
REMARK  121  A    between atoms: _281  and  _283
REMARK  122  A    between atoms: _283  and  _284
REMARK  123  A    between atoms: _283  and  _286
REMARK  124  A    between atoms: _286  and  _287
REMARK  125  A    between atoms: _289  and  _291
REMARK  126  A    between atoms: _291  and  _292
REMARK  127  A    between atoms: _291  and  _294
REMARK  128  A    between atoms: _294  and  _295
REMARK  129  A    between atoms: _298  and  _300
REMARK  130  A    between atoms: _300  and  _301
REMARK  131  A    between atoms: _300  and  _303
REMARK  132  A    between atoms: _303  and  _304
REMARK  133  A    between atoms: _310  and  _312
REMARK  134  A    between atoms: _312  and  _313
REMARK  135  A    between atoms: _312  and  _315
REMARK  136  A    between atoms: _315  and  _316
REMARK  137  A    between atoms: _316  and  _317
REMARK  138  A    between atoms: _317  and  _318
REMARK  139  A    between atoms: _318  and  _319
REMARK  140  A    between atoms: _323  and  _325
REMARK  141  A    between atoms: _325  and  _326
REMARK  142  A    between atoms: _325  and  _328
REMARK  143  A    between atoms: _328  and  _329
REMARK  144  A    between atoms: _334  and  _336
REMARK  145  A    between atoms: _336  and  _337
REMARK  146  A    between atoms: _336  and  _339
REMARK  147  A    between atoms: _339  and  _340
REMARK  148  A    between atoms: _343  and  _345
REMARK  149  A    between atoms: _345  and  _346
REMARK  150  A    between atoms: _345  and  _348
REMARK  151  A    between atoms: _348  and  _349
REMARK  152  A    between atoms: _352  and  _354
REMARK  153  A    between atoms: _354  and  _355
REMARK  154  A    between atoms: _358  and  _360
REMARK  155  A    between atoms: _360  and  _361
REMARK  156  A    between atoms: _360  and  _363
REMARK  157  A    between atoms: _363  and  _364
REMARK  158  A    between atoms: _367  and  _369
REMARK  159  A    between atoms: _369  and  _370
REMARK  160  A    between atoms: _369  and  _372
REMARK  161  A    between atoms: _372  and  _373
REMARK  162  A    between atoms: _376  and  _378
REMARK  163  A    between atoms: _378  and  _379
REMARK  164  A    between atoms: _378  and  _381
REMARK  165  A    between atoms: _381  and  _382
REMARK  166  A    between atoms: _382  and  _383
REMARK  167  A    between atoms: _383  and  _384
REMARK  168  A    between atoms: _393  and  _395
REMARK  169  A    between atoms: _395  and  _396
REMARK  170  A    between atoms: _395  and  _398
REMARK  171  A    between atoms: _398  and  _399
REMARK  172  A    between atoms: _399  and  _400
REMARK  173  A    between atoms: _405  and  _407
REMARK  174  A    between atoms: _407  and  _408
REMARK  175  A    between atoms: _407  and  _410
REMARK  176  A    between atoms: _410  and  _411
REMARK  177  A    between atoms: _411  and  _412
REMARK  178  A    between atoms: _417  and  _419
REMARK  179  A    between atoms: _419  and  _420
REMARK  180  A    between atoms: _419  and  _422
REMARK  181  A    between atoms: _422  and  _423
REMARK  182  A    between atoms: _433  and  _435
REMARK  183  A    between atoms: _435  and  _436
REMARK  184  A    between atoms: _435  and  _438
REMARK  185  A    between atoms: _438  and  _439
REMARK  186  A    between atoms: _442  and  _444
REMARK  187  A    between atoms: _444  and  _445
REMARK  188  A    between atoms: _444  and  _447
REMARK  189  A    between atoms: _447  and  _448
REMARK  190  A    between atoms: _451  and  _453
REMARK  191  A    between atoms: _453  and  _454
REMARK  192  A    between atoms: _453  and  _456
REMARK  193  A    between atoms: _456  and  _457
REMARK  194  A    between atoms: _457  and  _458
REMARK  195  A    between atoms: _458  and  _459
REMARK  196  A    between atoms: _459  and  _460
REMARK  197  A    between atoms: _464  and  _466
REMARK  198  A    between atoms: _466  and  _467
REMARK  199  A    between atoms: _466  and  _469
REMARK  200  A    between atoms: _469  and  _470
REMARK  201  A    between atoms: _470  and  _471
REMARK  202  A    between atoms: _471  and  _472
REMARK  203  A    between atoms: _481  and  _483
REMARK  204  A    between atoms: _483  and  _484
REMARK  205  A    between atoms: _483  and  _486
REMARK  206  A    between atoms: _486  and  _487
REMARK  207  A    between atoms: _490  and  _492
REMARK  208  A    between atoms: _492  and  _493
REMARK  209  A    between atoms: _492  and  _495
REMARK  210  A    between atoms: _498  and  _500
REMARK  211  A    between atoms: _500  and  _501
REMARK  212  A    between atoms: _500  and  _503
REMARK  213  A    between atoms: _503  and  _504
REMARK  214  A    between atoms: _504  and  _505
REMARK  215  A    between atoms: _508  and  _510
REMARK  216  A    between atoms: _510  and  _511
REMARK  217  A    between atoms: _510  and  _513
REMARK  218  A    between atoms: _515  and  _517
REMARK  219  A    between atoms: _517  and  _518
REMARK  220  A    between atoms: _517  and  _520
REMARK  221  A    between atoms: _520  and  _521
REMARK  222  A    between atoms: _521  and  _522
REMARK  223  A    between atoms: _524  and  _526
REMARK  224  A    between atoms: _526  and  _527
REMARK  225  A    between atoms: _526  and  _529
REMARK  226  A    between atoms: _529  and  _530
REMARK  227  A    between atoms: _532  and  _534
REMARK  228  A    between atoms: _534  and  _535
REMARK  229  A    between atoms: _534  and  _537
REMARK  230  A    between atoms: _537  and  _538
REMARK  231  A    between atoms: _541  and  _543
REMARK  232  A    between atoms: _543  and  _544
REMARK  233  A    between atoms: _543  and  _546
REMARK  234  A    between atoms: _546  and  _547
REMARK  235  A    between atoms: _547  and  _548
REMARK  236  A    between atoms: _548  and  _549
REMARK  237  A    between atoms: _558  and  _560
REMARK  238  A    between atoms: _560  and  _561
REMARK  239  A    between atoms: _560  and  _563
REMARK  240  A    between atoms: _566  and  _568
REMARK  241  A    between atoms: _568  and  _569
REMARK  242  A    between atoms: _568  and  _571
REMARK  243  A    between atoms: _571  and  _572
REMARK  244  A    between atoms: _577  and  _578
REMARK                            x       y       z     vdW  Elec       q    Type
REMARK                         _______ _______ _______ _____ _____    ______ ____
ROOT
ATOM      1  O   HOH     1       6.058  14.291  -7.305  0.00  0.00    +0.000 OA
ENDROOT
TORSDOF 0
REMARK  Name = ../refined-set-2016/3hk1/3hk1_pocket.pdb
REMARK  244 active torsions:
REMARK  status: ('A' for Active; 'I' for Inactive)
REMARK    1  A    between atoms: _1  and  _3
REMARK    2  A    between atoms: _3  and  _4
REMARK    3  A    between atoms: _3  and  _6
REMARK    4  A    between atoms: _6  and  _7
REMARK    5  A    between atoms: _10  and  _12
REMARK    6  A    between atoms: _12  and  _13
REMARK    7  A    between atoms: _12  and  _15
REMARK    8  A    between atoms: _18  and  _20
REMARK    9  A    between atoms: _20  and  _21
REMARK   10  A    between atoms: _20  and  _23
REMARK   11  A    between atoms: _23  and  _24
REMARK   12  A    between atoms: _26  and  _28
REMARK   13  A    between atoms: _28  and  _29
REMARK   14  A    between atoms: _28  and  _31
REMARK   15  A    between atoms: _31  and  _32
REMARK   16  A    between atoms: _34  and  _36
REMARK   17  A    between atoms: _36  and  _37
REMARK   18  A    between atoms: _36  and  _39
REMARK   19  A    between atoms: _39  and  _40
REMARK   20  A    between atoms: _46  and  _48
REMARK   21  A    between atoms: _48  and  _49
REMARK   22  A    between atoms: _48  and  _51
REMARK   23  A    between atoms: _51  and  _52
REMARK   24  A    between atoms: _57  and  _58
REMARK   25  A    between atoms: _60  and  _62
REMARK   26  A    between atoms: _62  and  _63
REMARK   27  A    between atoms: _62  and  _65
REMARK   28  A    between atoms: _65  and  _66
REMARK   29  A    between atoms: _66  and  _67
REMARK   30  A    between atoms: _69  and  _71
REMARK   31  A    between atoms: _71  and  _72
REMARK   32  A    between atoms: _71  and  _74
REMARK   33  A    between atoms: _74  and  _75
REMARK   34  A    between atoms: _75  and  _76
REMARK   35  A    between atoms: _76  and  _77
REMARK   36  A    between atoms: _77  and  _78
REMARK   37  A    between atoms: _82  and  _84
REMARK   38  A    between atoms: _84  and  _85
REMARK   39  A    between atoms: _84  and  _87
REMARK   40  A    between atoms: _87  and  _88
REMARK   41  A    between atoms: _88  and  _89
REMARK   42  A    between atoms: _92  and  _94
REMARK   43  A    between atoms: _94  and  _95
REMARK   44  A    between atoms: _94  and  _97
REMARK   45  A    between atoms: _100  and  _102
REMARK   46  A    between atoms: _102  and  _103
REMARK   47  A    between atoms: _105  and  _107
REMARK   48  A    between atoms: _107  and  _108
REMARK   49  A    between atoms: _107  and  _110
REMARK   50  A    between atoms: _113  and  _115
REMARK   51  A    between atoms: _115  and  _116
REMARK   52  A    between atoms: _118  and  _120
REMARK   53  A    between atoms: _120  and  _121
REMARK   54  A    between atoms: _124  and  _126
REMARK   55  A    between atoms: _126  and  _127
REMARK   56  A    between atoms: _126  and  _129
REMARK   57  A    between atoms: _129  and  _130
REMARK   58  A    between atoms: _133  and  _135
REMARK   59  A    between atoms: _135  and  _136
REMARK   60  A    between atoms: _135  and  _138
REMARK   61  A    between atoms: _138  and  _139
REMARK   62  A    between atoms: _139  and  _140
REMARK   63  A    between atoms: _140  and  _141
REMARK   64  A    between atoms: _150  and  _152
REMARK   65  A    between atoms: _152  and  _153
REMARK   66  A    between atoms: _152  and  _155
REMARK   67  A    between atoms: _155  and  _156
REMARK   68  A    between atoms: _156  and  _157
REMARK   69  A    between atoms: _157  and  _158
REMARK   70  A    between atoms: _158  and  _159
REMARK   71  A    between atoms: _163  and  _165
REMARK   72  A    between atoms: _165  and  _166
REMARK   73  A    between atoms: _165  and  _168
REMARK   74  A    between atoms: _171  and  _173
REMARK   75  A    between atoms: _173  and  _174
REMARK   76  A    between atoms: _177  and  _179
REMARK   77  A    between atoms: _179  and  _180
REMARK   78  A    between atoms: _182  and  _184
REMARK   79  A    between atoms: _184  and  _185
REMARK   80  A    between atoms: _184  and  _187
REMARK   81  A    between atoms: _187  and  _188
REMARK   82  A    between atoms: _188  and  _189
REMARK   83  A    between atoms: _191  and  _193
REMARK   84  A    between atoms: _193  and  _194
REMARK   85  A    between atoms: _197  and  _199
REMARK   86  A    between atoms: _199  and  _200
REMARK   87  A    between atoms: _199  and  _202
REMARK   88  A    between atoms: _202  and  _203
REMARK   89  A    between atoms: _203  and  _204
REMARK   90  A    between atoms: _204  and  _205
REMARK   91  A    between atoms: _205  and  _206
REMARK   92  A    between atoms: _211  and  _212
REMARK   93  A    between atoms: _217  and  _219
REMARK   94  A    between atoms: _219  and  _220
REMARK   95  A    between atoms: _219  and  _222
REMARK   96  A    between atoms: _222  and  _223
REMARK   97  A    between atoms: _228  and  _230
REMARK   98  A    between atoms: _230  and  _231
REMARK   99  A    between atoms: _230  and  _233
REMARK  100  A    between atoms: _233  and  _234
REMARK  101  A    between atoms: _234  and  _235
REMARK  102  A    between atoms: _237  and  _239
REMARK  103  A    between atoms: _239  and  _240
REMARK  104  A    between atoms: _239  and  _242
REMARK  105  A    between atoms: _242  and  _243
REMARK  106  A    between atoms: _246  and  _248
REMARK  107  A    between atoms: _248  and  _249
REMARK  108  A    between atoms: _248  and  _251
REMARK  109  A    between atoms: _251  and  _252
REMARK  110  A    between atoms: _252  and  _253
REMARK  111  A    between atoms: _253  and  _254
REMARK  112  A    between atoms: _263  and  _265
REMARK  113  A    between atoms: _265  and  _266
REMARK  114  A    between atoms: _265  and  _268
REMARK  115  A    between atoms: _268  and  _269
REMARK  116  A    between atoms: _271  and  _273
REMARK  117  A    between atoms: _273  and  _274
REMARK  118  A    between atoms: _273  and  _276
REMARK  119  A    between atoms: _276  and  _277
REMARK  120  A    between atoms: _277  and  _278
REMARK  121  A    between atoms: _281  and  _283
REMARK  122  A    between atoms: _283  and  _284
REMARK  123  A    between atoms: _283  and  _286
REMARK  124  A    between atoms: _286  and  _287
REMARK  125  A    between atoms: _289  and  _291
REMARK  126  A    between atoms: _291  and  _292
REMARK  127  A    between atoms: _291  and  _294
REMARK  128  A    between atoms: _294  and  _295
REMARK  129  A    between atoms: _298  and  _300
REMARK  130  A    between atoms: _300  and  _301
REMARK  131  A    between atoms: _300  and  _303
REMARK  132  A    between atoms: _303  and  _304
REMARK  133  A    between atoms: _310  and  _312
REMARK  134  A    between atoms: _312  and  _313
REMARK  135  A    between atoms: _312  and  _315
REMARK  136  A    between atoms: _315  and  _316
REMARK  137  A    between atoms: _316  and  _317
REMARK  138  A    between atoms: _317  and  _318
REMARK  139  A    between atoms: _318  and  _319
REMARK  140  A    between atoms: _323  and  _325
REMARK  141  A    between atoms: _325  and  _326
REMARK  142  A    between atoms: _325  and  _328
REMARK  143  A    between atoms: _328  and  _329
REMARK  144  A    between atoms: _334  and  _336
REMARK  145  A    between atoms: _336  and  _337
REMARK  146  A    between atoms: _336  and  _339
REMARK  147  A    between atoms: _339  and  _340
REMARK  148  A    between atoms: _343  and  _345
REMARK  149  A    between atoms: _345  and  _346
REMARK  150  A    between atoms: _345  and  _348
REMARK  151  A    between atoms: _348  and  _349
REMARK  152  A    between atoms: _352  and  _354
REMARK  153  A    between atoms: _354  and  _355
REMARK  154  A    between atoms: _358  and  _360
REMARK  155  A    between atoms: _360  and  _361
REMARK  156  A    between atoms: _360  and  _363
REMARK  157  A    between atoms: _363  and  _364
REMARK  158  A    between atoms: _367  and  _369
REMARK  159  A    between atoms: _369  and  _370
REMARK  160  A    between atoms: _369  and  _372
REMARK  161  A    between atoms: _372  and  _373
REMARK  162  A    between atoms: _376  and  _378
REMARK  163  A    between atoms: _378  and  _379
REMARK  164  A    between atoms: _378  and  _381
REMARK  165  A    between atoms: _381  and  _382
REMARK  166  A    between atoms: _382  and  _383
REMARK  167  A    between atoms: _383  and  _384
REMARK  168  A    between atoms: _393  and  _395
REMARK  169  A    between atoms: _395  and  _396
REMARK  170  A    between atoms: _395  and  _398
REMARK  171  A    between atoms: _398  and  _399
REMARK  172  A    between atoms: _399  and  _400
REMARK  173  A    between atoms: _405  and  _407
REMARK  174  A    between atoms: _407  and  _408
REMARK  175  A    between atoms: _407  and  _410
REMARK  176  A    between atoms: _410  and  _411
REMARK  177  A    between atoms: _411  and  _412
REMARK  178  A    between atoms: _417  and  _419
REMARK  179  A    between atoms: _419  and  _420
REMARK  180  A    between atoms: _419  and  _422
REMARK  181  A    between atoms: _422  and  _423
REMARK  182  A    between atoms: _433  and  _435
REMARK  183  A    between atoms: _435  and  _436
REMARK  184  A    between atoms: _435  and  _438
REMARK  185  A    between atoms: _438  and  _439
REMARK  186  A    between atoms: _442  and  _444
REMARK  187  A    between atoms: _444  and  _445
REMARK  188  A    between atoms: _444  and  _447
REMARK  189  A    between atoms: _447  and  _448
REMARK  190  A    between atoms: _451  and  _453
REMARK  191  A    between atoms: _453  and  _454
REMARK  192  A    between atoms: _453  and  _456
REMARK  193  A    between atoms: _456  and  _457
REMARK  194  A    between atoms: _457  and  _458
REMARK  195  A    between atoms: _458  and  _459
REMARK  196  A    between atoms: _459  and  _460
REMARK  197  A    between atoms: _464  and  _466
REMARK  198  A    between atoms: _466  and  _467
REMARK  199  A    between atoms: _466  and  _469
REMARK  200  A    between atoms: _469  and  _470
REMARK  201  A    between atoms: _470  and  _471
REMARK  202  A    between atoms: _471  and  _472
REMARK  203  A    between atoms: _481  and  _483
REMARK  204  A    between atoms: _483  and  _484
REMARK  205  A    between atoms: _483  and  _486
REMARK  206  A    between atoms: _486  and  _487
REMARK  207  A    between atoms: _490  and  _492
REMARK  208  A    between atoms: _492  and  _493
REMARK  209  A    between atoms: _492  and  _495
REMARK  210  A    between atoms: _498  and  _500
REMARK  211  A    between atoms: _500  and  _501
REMARK  212  A    between atoms: _500  and  _503
REMARK  213  A    between atoms: _503  and  _504
REMARK  214  A    between atoms: _504  and  _505
REMARK  215  A    between atoms: _508  and  _510
REMARK  216  A    between atoms: _510  and  _511
REMARK  217  A    between atoms: _510  and  _513
REMARK  218  A    between atoms: _515  and  _517
REMARK  219  A    between atoms: _517  and  _518
REMARK  220  A    between atoms: _517  and  _520
REMARK  221  A    between atoms: _520  and  _521
REMARK  222  A    between atoms: _521  and  _522
REMARK  223  A    between atoms: _524  and  _526
REMARK  224  A    between atoms: _526  and  _527
REMARK  225  A    between atoms: _526  and  _529
REMARK  226  A    between atoms: _529  and  _530
REMARK  227  A    between atoms: _532  and  _534
REMARK  228  A    between atoms: _534  and  _535
REMARK  229  A    between atoms: _534  and  _537
REMARK  230  A    between atoms: _537  and  _538
REMARK  231  A    between atoms: _541  and  _543
REMARK  232  A    between atoms: _543  and  _544
REMARK  233  A    between atoms: _543  and  _546
REMARK  234  A    between atoms: _546  and  _547
REMARK  235  A    between atoms: _547  and  _548
REMARK  236  A    between atoms: _548  and  _549
REMARK  237  A    between atoms: _558  and  _560
REMARK  238  A    between atoms: _560  and  _561
REMARK  239  A    between atoms: _560  and  _563
REMARK  240  A    between atoms: _566  and  _568
REMARK  241  A    between atoms: _568  and  _569
REMARK  242  A    between atoms: _568  and  _571
REMARK  243  A    between atoms: _571  and  _572
REMARK  244  A    between atoms: _577  and  _578
REMARK                            x       y       z     vdW  Elec       q    Type
REMARK                         _______ _______ _______ _____ _____    ______ ____
ROOT
ATOM      1  O   HOH     1      10.166  14.959  -5.602  0.00  0.00    +0.000 OA
ENDROOT
TORSDOF 0
REMARK  Name = ../refined-set-2016/3hk1/3hk1_pocket.pdb
REMARK  244 active torsions:
REMARK  status: ('A' for Active; 'I' for Inactive)
REMARK    1  A    between atoms: _1  and  _3
REMARK    2  A    between atoms: _3  and  _4
REMARK    3  A    between atoms: _3  and  _6
REMARK    4  A    between atoms: _6  and  _7
REMARK    5  A    between atoms: _10  and  _12
REMARK    6  A    between atoms: _12  and  _13
REMARK    7  A    between atoms: _12  and  _15
REMARK    8  A    between atoms: _18  and  _20
REMARK    9  A    between atoms: _20  and  _21
REMARK   10  A    between atoms: _20  and  _23
REMARK   11  A    between atoms: _23  and  _24
REMARK   12  A    between atoms: _26  and  _28
REMARK   13  A    between atoms: _28  and  _29
REMARK   14  A    between atoms: _28  and  _31
REMARK   15  A    between atoms: _31  and  _32
REMARK   16  A    between atoms: _34  and  _36
REMARK   17  A    between atoms: _36  and  _37
REMARK   18  A    between atoms: _36  and  _39
REMARK   19  A    between atoms: _39  and  _40
REMARK   20  A    between atoms: _46  and  _48
REMARK   21  A    between atoms: _48  and  _49
REMARK   22  A    between atoms: _48  and  _51
REMARK   23  A    between atoms: _51  and  _52
REMARK   24  A    between atoms: _57  and  _58
REMARK   25  A    between atoms: _60  and  _62
REMARK   26  A    between atoms: _62  and  _63
REMARK   27  A    between atoms: _62  and  _65
REMARK   28  A    between atoms: _65  and  _66
REMARK   29  A    between atoms: _66  and  _67
REMARK   30  A    between atoms: _69  and  _71
REMARK   31  A    between atoms: _71  and  _72
REMARK   32  A    between atoms: _71  and  _74
REMARK   33  A    between atoms: _74  and  _75
REMARK   34  A    between atoms: _75  and  _76
REMARK   35  A    between atoms: _76  and  _77
REMARK   36  A    between atoms: _77  and  _78
REMARK   37  A    between atoms: _82  and  _84
REMARK   38  A    between atoms: _84  and  _85
REMARK   39  A    between atoms: _84  and  _87
REMARK   40  A    between atoms: _87  and  _88
REMARK   41  A    between atoms: _88  and  _89
REMARK   42  A    between atoms: _92  and  _94
REMARK   43  A    between atoms: _94  and  _95
REMARK   44  A    between atoms: _94  and  _97
REMARK   45  A    between atoms: _100  and  _102
REMARK   46  A    between atoms: _102  and  _103
REMARK   47  A    between atoms: _105  and  _107
REMARK   48  A    between atoms: _107  and  _108
REMARK   49  A    between atoms: _107  and  _110
REMARK   50  A    between atoms: _113  and  _115
REMARK   51  A    between atoms: _115  and  _116
REMARK   52  A    between atoms: _118  and  _120
REMARK   53  A    between atoms: _120  and  _121
REMARK   54  A    between atoms: _124  and  _126
REMARK   55  A    between atoms: _126  and  _127
REMARK   56  A    between atoms: _126  and  _129
REMARK   57  A    between atoms: _129  and  _130
REMARK   58  A    between atoms: _133  and  _135
REMARK   59  A    between atoms: _135  and  _136
REMARK   60  A    between atoms: _135  and  _138
REMARK   61  A    between atoms: _138  and  _139
REMARK   62  A    between atoms: _139  and  _140
REMARK   63  A    between atoms: _140  and  _141
REMARK   64  A    between atoms: _150  and  _152
REMARK   65  A    between atoms: _152  and  _153
REMARK   66  A    between atoms: _152  and  _155
REMARK   67  A    between atoms: _155  and  _156
REMARK   68  A    between atoms: _156  and  _157
REMARK   69  A    between atoms: _157  and  _158
REMARK   70  A    between atoms: _158  and  _159
REMARK   71  A    between atoms: _163  and  _165
REMARK   72  A    between atoms: _165  and  _166
REMARK   73  A    between atoms: _165  and  _168
REMARK   74  A    between atoms: _171  and  _173
REMARK   75  A    between atoms: _173  and  _174
REMARK   76  A    between atoms: _177  and  _179
REMARK   77  A    between atoms: _179  and  _180
REMARK   78  A    between atoms: _182  and  _184
REMARK   79  A    between atoms: _184  and  _185
REMARK   80  A    between atoms: _184  and  _187
REMARK   81  A    between atoms: _187  and  _188
REMARK   82  A    between atoms: _188  and  _189
REMARK   83  A    between atoms: _191  and  _193
REMARK   84  A    between atoms: _193  and  _194
REMARK   85  A    between atoms: _197  and  _199
REMARK   86  A    between atoms: _199  and  _200
REMARK   87  A    between atoms: _199  and  _202
REMARK   88  A    between atoms: _202  and  _203
REMARK   89  A    between atoms: _203  and  _204
REMARK   90  A    between atoms: _204  and  _205
REMARK   91  A    between atoms: _205  and  _206
REMARK   92  A    between atoms: _211  and  _212
REMARK   93  A    between atoms: _217  and  _219
REMARK   94  A    between atoms: _219  and  _220
REMARK   95  A    between atoms: _219  and  _222
REMARK   96  A    between atoms: _222  and  _223
REMARK   97  A    between atoms: _228  and  _230
REMARK   98  A    between atoms: _230  and  _231
REMARK   99  A    between atoms: _230  and  _233
REMARK  100  A    between atoms: _233  and  _234
REMARK  101  A    between atoms: _234  and  _235
REMARK  102  A    between atoms: _237  and  _239
REMARK  103  A    between atoms: _239  and  _240
REMARK  104  A    between atoms: _239  and  _242
REMARK  105  A    between atoms: _242  and  _243
REMARK  106  A    between atoms: _246  and  _248
REMARK  107  A    between atoms: _248  and  _249
REMARK  108  A    between atoms: _248  and  _251
REMARK  109  A    between atoms: _251  and  _252
REMARK  110  A    between atoms: _252  and  _253
REMARK  111  A    between atoms: _253  and  _254
REMARK  112  A    between atoms: _263  and  _265
REMARK  113  A    between atoms: _265  and  _266
REMARK  114  A    between atoms: _265  and  _268
REMARK  115  A    between atoms: _268  and  _269
REMARK  116  A    between atoms: _271  and  _273
REMARK  117  A    between atoms: _273  and  _274
REMARK  118  A    between atoms: _273  and  _276
REMARK  119  A    between atoms: _276  and  _277
REMARK  120  A    between atoms: _277  and  _278
REMARK  121  A    between atoms: _281  and  _283
REMARK  122  A    between atoms: _283  and  _284
REMARK  123  A    between atoms: _283  and  _286
REMARK  124  A    between atoms: _286  and  _287
REMARK  125  A    between atoms: _289  and  _291
REMARK  126  A    between atoms: _291  and  _292
REMARK  127  A    between atoms: _291  and  _294
REMARK  128  A    between atoms: _294  and  _295
REMARK  129  A    between atoms: _298  and  _300
REMARK  130  A    between atoms: _300  and  _301
REMARK  131  A    between atoms: _300  and  _303
REMARK  132  A    between atoms: _303  and  _304
REMARK  133  A    between atoms: _310  and  _312
REMARK  134  A    between atoms: _312  and  _313
REMARK  135  A    between atoms: _312  and  _315
REMARK  136  A    between atoms: _315  and  _316
REMARK  137  A    between atoms: _316  and  _317
REMARK  138  A    between atoms: _317  and  _318
REMARK  139  A    between atoms: _318  and  _319
REMARK  140  A    between atoms: _323  and  _325
REMARK  141  A    between atoms: _325  and  _326
REMARK  142  A    between atoms: _325  and  _328
REMARK  143  A    between atoms: _328  and  _329
REMARK  144  A    between atoms: _334  and  _336
REMARK  145  A    between atoms: _336  and  _337
REMARK  146  A    between atoms: _336  and  _339
REMARK  147  A    between atoms: _339  and  _340
REMARK  148  A    between atoms: _343  and  _345
REMARK  149  A    between atoms: _345  and  _346
REMARK  150  A    between atoms: _345  and  _348
REMARK  151  A    between atoms: _348  and  _349
REMARK  152  A    between atoms: _352  and  _354
REMARK  153  A    between atoms: _354  and  _355
REMARK  154  A    between atoms: _358  and  _360
REMARK  155  A    between atoms: _360  and  _361
REMARK  156  A    between atoms: _360  and  _363
REMARK  157  A    between atoms: _363  and  _364
REMARK  158  A    between atoms: _367  and  _369
REMARK  159  A    between atoms: _369  and  _370
REMARK  160  A    between atoms: _369  and  _372
REMARK  161  A    between atoms: _372  and  _373
REMARK  162  A    between atoms: _376  and  _378
REMARK  163  A    between atoms: _378  and  _379
REMARK  164  A    between atoms: _378  and  _381
REMARK  165  A    between atoms: _381  and  _382
REMARK  166  A    between atoms: _382  and  _383
REMARK  167  A    between atoms: _383  and  _384
REMARK  168  A    between atoms: _393  and  _395
REMARK  169  A    between atoms: _395  and  _396
REMARK  170  A    between atoms: _395  and  _398
REMARK  171  A    between atoms: _398  and  _399
REMARK  172  A    between atoms: _399  and  _400
REMARK  173  A    between atoms: _405  and  _407
REMARK  174  A    between atoms: _407  and  _408
REMARK  175  A    between atoms: _407  and  _410
REMARK  176  A    between atoms: _410  and  _411
REMARK  177  A    between atoms: _411  and  _412
REMARK  178  A    between atoms: _417  and  _419
REMARK  179  A    between atoms: _419  and  _420
REMARK  180  A    between atoms: _419  and  _422
REMARK  181  A    between atoms: _422  and  _423
REMARK  182  A    between atoms: _433  and  _435
REMARK  183  A    between atoms: _435  and  _436
REMARK  184  A    between atoms: _435  and  _438
REMARK  185  A    between atoms: _438  and  _439
REMARK  186  A    between atoms: _442  and  _444
REMARK  187  A    between atoms: _444  and  _445
REMARK  188  A    between atoms: _444  and  _447
REMARK  189  A    between atoms: _447  and  _448
REMARK  190  A    between atoms: _451  and  _453
REMARK  191  A    between atoms: _453  and  _454
REMARK  192  A    between atoms: _453  and  _456
REMARK  193  A    between atoms: _456  and  _457
REMARK  194  A    between atoms: _457  and  _458
REMARK  195  A    between atoms: _458  and  _459
REMARK  196  A    between atoms: _459  and  _460
REMARK  197  A    between atoms: _464  and  _466
REMARK  198  A    between atoms: _466  and  _467
REMARK  199  A    between atoms: _466  and  _469
REMARK  200  A    between atoms: _469  and  _470
REMARK  201  A    between atoms: _470  and  _471
REMARK  202  A    between atoms: _471  and  _472
REMARK  203  A    between atoms: _481  and  _483
REMARK  204  A    between atoms: _483  and  _484
REMARK  205  A    between atoms: _483  and  _486
REMARK  206  A    between atoms: _486  and  _487
REMARK  207  A    between atoms: _490  and  _492
REMARK  208  A    between atoms: _492  and  _493
REMARK  209  A    between atoms: _492  and  _495
REMARK  210  A    between atoms: _498  and  _500
REMARK  211  A    between atoms: _500  and  _501
REMARK  212  A    between atoms: _500  and  _503
REMARK  213  A    between atoms: _503  and  _504
REMARK  214  A    between atoms: _504  and  _505
REMARK  215  A    between atoms: _508  and  _510
REMARK  216  A    between atoms: _510  and  _511
REMARK  217  A    between atoms: _510  and  _513
REMARK  218  A    between atoms: _515  and  _517
REMARK  219  A    between atoms: _517  and  _518
REMARK  220  A    between atoms: _517  and  _520
REMARK  221  A    between atoms: _520  and  _521
REMARK  222  A    between atoms: _521  and  _522
REMARK  223  A    between atoms: _524  and  _526
REMARK  224  A    between atoms: _526  and  _527
REMARK  225  A    between atoms: _526  and  _529
REMARK  226  A    between atoms: _529  and  _530
REMARK  227  A    between atoms: _532  and  _534
REMARK  228  A    between atoms: _534  and  _535
REMARK  229  A    between atoms: _534  and  _537
REMARK  230  A    between atoms: _537  and  _538
REMARK  231  A    between atoms: _541  and  _543
REMARK  232  A    between atoms: _543  and  _544
REMARK  233  A    between atoms: _543  and  _546
REMARK  234  A    between atoms: _546  and  _547
REMARK  235  A    between atoms: _547  and  _548
REMARK  236  A    between atoms: _548  and  _549
REMARK  237  A    between atoms: _558  and  _560
REMARK  238  A    between atoms: _560  and  _561
REMARK  239  A    between atoms: _560  and  _563
REMARK  240  A    between atoms: _566  and  _568
REMARK  241  A    between atoms: _568  and  _569
REMARK  242  A    between atoms: _568  and  _571
REMARK  243  A    between atoms: _571  and  _572
REMARK  244  A    between atoms: _577  and  _578
REMARK                            x       y       z     vdW  Elec       q    Type
REMARK                         _______ _______ _______ _____ _____    ______ ____
ROOT
ATOM      1  O   HOH     1      12.242  23.915 -15.396  0.00  0.00    +0.000 OA
ENDROOT
TORSDOF 0
REMARK  Name = ../refined-set-2016/3hk1/3hk1_pocket.pdb
REMARK  244 active torsions:
REMARK  status: ('A' for Active; 'I' for Inactive)
REMARK    1  A    between atoms: _1  and  _3
REMARK    2  A    between atoms: _3  and  _4
REMARK    3  A    between atoms: _3  and  _6
REMARK    4  A    between atoms: _6  and  _7
REMARK    5  A    between atoms: _10  and  _12
REMARK    6  A    between atoms: _12  and  _13
REMARK    7  A    between atoms: _12  and  _15
REMARK    8  A    between atoms: _18  and  _20
REMARK    9  A    between atoms: _20  and  _21
REMARK   10  A    between atoms: _20  and  _23
REMARK   11  A    between atoms: _23  and  _24
REMARK   12  A    between atoms: _26  and  _28
REMARK   13  A    between atoms: _28  and  _29
REMARK   14  A    between atoms: _28  and  _31
REMARK   15  A    between atoms: _31  and  _32
REMARK   16  A    between atoms: _34  and  _36
REMARK   17  A    between atoms: _36  and  _37
REMARK   18  A    between atoms: _36  and  _39
REMARK   19  A    between atoms: _39  and  _40
REMARK   20  A    between atoms: _46  and  _48
REMARK   21  A    between atoms: _48  and  _49
REMARK   22  A    between atoms: _48  and  _51
REMARK   23  A    between atoms: _51  and  _52
REMARK   24  A    between atoms: _57  and  _58
REMARK   25  A    between atoms: _60  and  _62
REMARK   26  A    between atoms: _62  and  _63
REMARK   27  A    between atoms: _62  and  _65
REMARK   28  A    between atoms: _65  and  _66
REMARK   29  A    between atoms: _66  and  _67
REMARK   30  A    between atoms: _69  and  _71
REMARK   31  A    between atoms: _71  and  _72
REMARK   32  A    between atoms: _71  and  _74
REMARK   33  A    between atoms: _74  and  _75
REMARK   34  A    between atoms: _75  and  _76
REMARK   35  A    between atoms: _76  and  _77
REMARK   36  A    between atoms: _77  and  _78
REMARK   37  A    between atoms: _82  and  _84
REMARK   38  A    between atoms: _84  and  _85
REMARK   39  A    between atoms: _84  and  _87
REMARK   40  A    between atoms: _87  and  _88
REMARK   41  A    between atoms: _88  and  _89
REMARK   42  A    between atoms: _92  and  _94
REMARK   43  A    between atoms: _94  and  _95
REMARK   44  A    between atoms: _94  and  _97
REMARK   45  A    between atoms: _100  and  _102
REMARK   46  A    between atoms: _102  and  _103
REMARK   47  A    between atoms: _105  and  _107
REMARK   48  A    between atoms: _107  and  _108
REMARK   49  A    between atoms: _107  and  _110
REMARK   50  A    between atoms: _113  and  _115
REMARK   51  A    between atoms: _115  and  _116
REMARK   52  A    between atoms: _118  and  _120
REMARK   53  A    between atoms: _120  and  _121
REMARK   54  A    between atoms: _124  and  _126
REMARK   55  A    between atoms: _126  and  _127
REMARK   56  A    between atoms: _126  and  _129
REMARK   57  A    between atoms: _129  and  _130
REMARK   58  A    between atoms: _133  and  _135
REMARK   59  A    between atoms: _135  and  _136
REMARK   60  A    between atoms: _135  and  _138
REMARK   61  A    between atoms: _138  and  _139
REMARK   62  A    between atoms: _139  and  _140
REMARK   63  A    between atoms: _140  and  _141
REMARK   64  A    between atoms: _150  and  _152
REMARK   65  A    between atoms: _152  and  _153
REMARK   66  A    between atoms: _152  and  _155
REMARK   67  A    between atoms: _155  and  _156
REMARK   68  A    between atoms: _156  and  _157
REMARK   69  A    between atoms: _157  and  _158
REMARK   70  A    between atoms: _158  and  _159
REMARK   71  A    between atoms: _163  and  _165
REMARK   72  A    between atoms: _165  and  _166
REMARK   73  A    between atoms: _165  and  _168
REMARK   74  A    between atoms: _171  and  _173
REMARK   75  A    between atoms: _173  and  _174
REMARK   76  A    between atoms: _177  and  _179
REMARK   77  A    between atoms: _179  and  _180
REMARK   78  A    between atoms: _182  and  _184
REMARK   79  A    between atoms: _184  and  _185
REMARK   80  A    between atoms: _184  and  _187
REMARK   81  A    between atoms: _187  and  _188
REMARK   82  A    between atoms: _188  and  _189
REMARK   83  A    between atoms: _191  and  _193
REMARK   84  A    between atoms: _193  and  _194
REMARK   85  A    between atoms: _197  and  _199
REMARK   86  A    between atoms: _199  and  _200
REMARK   87  A    between atoms: _199  and  _202
REMARK   88  A    between atoms: _202  and  _203
REMARK   89  A    between atoms: _203  and  _204
REMARK   90  A    between atoms: _204  and  _205
REMARK   91  A    between atoms: _205  and  _206
REMARK   92  A    between atoms: _211  and  _212
REMARK   93  A    between atoms: _217  and  _219
REMARK   94  A    between atoms: _219  and  _220
REMARK   95  A    between atoms: _219  and  _222
REMARK   96  A    between atoms: _222  and  _223
REMARK   97  A    between atoms: _228  and  _230
REMARK   98  A    between atoms: _230  and  _231
REMARK   99  A    between atoms: _230  and  _233
REMARK  100  A    between atoms: _233  and  _234
REMARK  101  A    between atoms: _234  and  _235
REMARK  102  A    between atoms: _237  and  _239
REMARK  103  A    between atoms: _239  and  _240
REMARK  104  A    between atoms: _239  and  _242
REMARK  105  A    between atoms: _242  and  _243
REMARK  106  A    between atoms: _246  and  _248
REMARK  107  A    between atoms: _248  and  _249
REMARK  108  A    between atoms: _248  and  _251
REMARK  109  A    between atoms: _251  and  _252
REMARK  110  A    between atoms: _252  and  _253
REMARK  111  A    between atoms: _253  and  _254
REMARK  112  A    between atoms: _263  and  _265
REMARK  113  A    between atoms: _265  and  _266
REMARK  114  A    between atoms: _265  and  _268
REMARK  115  A    between atoms: _268  and  _269
REMARK  116  A    between atoms: _271  and  _273
REMARK  117  A    between atoms: _273  and  _274
REMARK  118  A    between atoms: _273  and  _276
REMARK  119  A    between atoms: _276  and  _277
REMARK  120  A    between atoms: _277  and  _278
REMARK  121  A    between atoms: _281  and  _283
REMARK  122  A    between atoms: _283  and  _284
REMARK  123  A    between atoms: _283  and  _286
REMARK  124  A    between atoms: _286  and  _287
REMARK  125  A    between atoms: _289  and  _291
REMARK  126  A    between atoms: _291  and  _292
REMARK  127  A    between atoms: _291  and  _294
REMARK  128  A    between atoms: _294  and  _295
REMARK  129  A    between atoms: _298  and  _300
REMARK  130  A    between atoms: _300  and  _301
REMARK  131  A    between atoms: _300  and  _303
REMARK  132  A    between atoms: _303  and  _304
REMARK  133  A    between atoms: _310  and  _312
REMARK  134  A    between atoms: _312  and  _313
REMARK  135  A    between atoms: _312  and  _315
REMARK  136  A    between atoms: _315  and  _316
REMARK  137  A    between atoms: _316  and  _317
REMARK  138  A    between atoms: _317  and  _318
REMARK  139  A    between atoms: _318  and  _319
REMARK  140  A    between atoms: _323  and  _325
REMARK  141  A    between atoms: _325  and  _326
REMARK  142  A    between atoms: _325  and  _328
REMARK  143  A    between atoms: _328  and  _329
REMARK  144  A    between atoms: _334  and  _336
REMARK  145  A    between atoms: _336  and  _337
REMARK  146  A    between atoms: _336  and  _339
REMARK  147  A    between atoms: _339  and  _340
REMARK  148  A    between atoms: _343  and  _345
REMARK  149  A    between atoms: _345  and  _346
REMARK  150  A    between atoms: _345  and  _348
REMARK  151  A    between atoms: _348  and  _349
REMARK  152  A    between atoms: _352  and  _354
REMARK  153  A    between atoms: _354  and  _355
REMARK  154  A    between atoms: _358  and  _360
REMARK  155  A    between atoms: _360  and  _361
REMARK  156  A    between atoms: _360  and  _363
REMARK  157  A    between atoms: _363  and  _364
REMARK  158  A    between atoms: _367  and  _369
REMARK  159  A    between atoms: _369  and  _370
REMARK  160  A    between atoms: _369  and  _372
REMARK  161  A    between atoms: _372  and  _373
REMARK  162  A    between atoms: _376  and  _378
REMARK  163  A    between atoms: _378  and  _379
REMARK  164  A    between atoms: _378  and  _381
REMARK  165  A    between atoms: _381  and  _382
REMARK  166  A    between atoms: _382  and  _383
REMARK  167  A    between atoms: _383  and  _384
REMARK  168  A    between atoms: _393  and  _395
REMARK  169  A    between atoms: _395  and  _396
REMARK  170  A    between atoms: _395  and  _398
REMARK  171  A    between atoms: _398  and  _399
REMARK  172  A    between atoms: _399  and  _400
REMARK  173  A    between atoms: _405  and  _407
REMARK  174  A    between atoms: _407  and  _408
REMARK  175  A    between atoms: _407  and  _410
REMARK  176  A    between atoms: _410  and  _411
REMARK  177  A    between atoms: _411  and  _412
REMARK  178  A    between atoms: _417  and  _419
REMARK  179  A    between atoms: _419  and  _420
REMARK  180  A    between atoms: _419  and  _422
REMARK  181  A    between atoms: _422  and  _423
REMARK  182  A    between atoms: _433  and  _435
REMARK  183  A    between atoms: _435  and  _436
REMARK  184  A    between atoms: _435  and  _438
REMARK  185  A    between atoms: _438  and  _439
REMARK  186  A    between atoms: _442  and  _444
REMARK  187  A    between atoms: _444  and  _445
REMARK  188  A    between atoms: _444  and  _447
REMARK  189  A    between atoms: _447  and  _448
REMARK  190  A    between atoms: _451  and  _453
REMARK  191  A    between atoms: _453  and  _454
REMARK  192  A    between atoms: _453  and  _456
REMARK  193  A    between atoms: _456  and  _457
REMARK  194  A    between atoms: _457  and  _458
REMARK  195  A    between atoms: _458  and  _459
REMARK  196  A    between atoms: _459  and  _460
REMARK  197  A    between atoms: _464  and  _466
REMARK  198  A    between atoms: _466  and  _467
REMARK  199  A    between atoms: _466  and  _469
REMARK  200  A    between atoms: _469  and  _470
REMARK  201  A    between atoms: _470  and  _471
REMARK  202  A    between atoms: _471  and  _472
REMARK  203  A    between atoms: _481  and  _483
REMARK  204  A    between atoms: _483  and  _484
REMARK  205  A    between atoms: _483  and  _486
REMARK  206  A    between atoms: _486  and  _487
REMARK  207  A    between atoms: _490  and  _492
REMARK  208  A    between atoms: _492  and  _493
REMARK  209  A    between atoms: _492  and  _495
REMARK  210  A    between atoms: _498  and  _500
REMARK  211  A    between atoms: _500  and  _501
REMARK  212  A    between atoms: _500  and  _503
REMARK  213  A    between atoms: _503  and  _504
REMARK  214  A    between atoms: _504  and  _505
REMARK  215  A    between atoms: _508  and  _510
REMARK  216  A    between atoms: _510  and  _511
REMARK  217  A    between atoms: _510  and  _513
REMARK  218  A    between atoms: _515  and  _517
REMARK  219  A    between atoms: _517  and  _518
REMARK  220  A    between atoms: _517  and  _520
REMARK  221  A    between atoms: _520  and  _521
REMARK  222  A    between atoms: _521  and  _522
REMARK  223  A    between atoms: _524  and  _526
REMARK  224  A    between atoms: _526  and  _527
REMARK  225  A    between atoms: _526  and  _529
REMARK  226  A    between atoms: _529  and  _530
REMARK  227  A    between atoms: _532  and  _534
REMARK  228  A    between atoms: _534  and  _535
REMARK  229  A    between atoms: _534  and  _537
REMARK  230  A    between atoms: _537  and  _538
REMARK  231  A    between atoms: _541  and  _543
REMARK  232  A    between atoms: _543  and  _544
REMARK  233  A    between atoms: _543  and  _546
REMARK  234  A    between atoms: _546  and  _547
REMARK  235  A    between atoms: _547  and  _548
REMARK  236  A    between atoms: _548  and  _549
REMARK  237  A    between atoms: _558  and  _560
REMARK  238  A    between atoms: _560  and  _561
REMARK  239  A    between atoms: _560  and  _563
REMARK  240  A    between atoms: _566  and  _568
REMARK  241  A    between atoms: _568  and  _569
REMARK  242  A    between atoms: _568  and  _571
REMARK  243  A    between atoms: _571  and  _572
REMARK  244  A    between atoms: _577  and  _578
REMARK                            x       y       z     vdW  Elec       q    Type
REMARK                         _______ _______ _______ _____ _____    ______ ____
ROOT
ATOM      1  O   HOH     1      10.175  25.514 -15.820  0.00  0.00    +0.000 OA
ENDROOT
TORSDOF 0
REMARK  Name = ../refined-set-2016/3hk1/3hk1_pocket.pdb
REMARK  244 active torsions:
REMARK  status: ('A' for Active; 'I' for Inactive)
REMARK    1  A    between atoms: _1  and  _3
REMARK    2  A    between atoms: _3  and  _4
REMARK    3  A    between atoms: _3  and  _6
REMARK    4  A    between atoms: _6  and  _7
REMARK    5  A    between atoms: _10  and  _12
REMARK    6  A    between atoms: _12  and  _13
REMARK    7  A    between atoms: _12  and  _15
REMARK    8  A    between atoms: _18  and  _20
REMARK    9  A    between atoms: _20  and  _21
REMARK   10  A    between atoms: _20  and  _23
REMARK   11  A    between atoms: _23  and  _24
REMARK   12  A    between atoms: _26  and  _28
REMARK   13  A    between atoms: _28  and  _29
REMARK   14  A    between atoms: _28  and  _31
REMARK   15  A    between atoms: _31  and  _32
REMARK   16  A    between atoms: _34  and  _36
REMARK   17  A    between atoms: _36  and  _37
REMARK   18  A    between atoms: _36  and  _39
REMARK   19  A    between atoms: _39  and  _40
REMARK   20  A    between atoms: _46  and  _48
REMARK   21  A    between atoms: _48  and  _49
REMARK   22  A    between atoms: _48  and  _51
REMARK   23  A    between atoms: _51  and  _52
REMARK   24  A    between atoms: _57  and  _58
REMARK   25  A    between atoms: _60  and  _62
REMARK   26  A    between atoms: _62  and  _63
REMARK   27  A    between atoms: _62  and  _65
REMARK   28  A    between atoms: _65  and  _66
REMARK   29  A    between atoms: _66  and  _67
REMARK   30  A    between atoms: _69  and  _71
REMARK   31  A    between atoms: _71  and  _72
REMARK   32  A    between atoms: _71  and  _74
REMARK   33  A    between atoms: _74  and  _75
REMARK   34  A    between atoms: _75  and  _76
REMARK   35  A    between atoms: _76  and  _77
REMARK   36  A    between atoms: _77  and  _78
REMARK   37  A    between atoms: _82  and  _84
REMARK   38  A    between atoms: _84  and  _85
REMARK   39  A    between atoms: _84  and  _87
REMARK   40  A    between atoms: _87  and  _88
REMARK   41  A    between atoms: _88  and  _89
REMARK   42  A    between atoms: _92  and  _94
REMARK   43  A    between atoms: _94  and  _95
REMARK   44  A    between atoms: _94  and  _97
REMARK   45  A    between atoms: _100  and  _102
REMARK   46  A    between atoms: _102  and  _103
REMARK   47  A    between atoms: _105  and  _107
REMARK   48  A    between atoms: _107  and  _108
REMARK   49  A    between atoms: _107  and  _110
REMARK   50  A    between atoms: _113  and  _115
REMARK   51  A    between atoms: _115  and  _116
REMARK   52  A    between atoms: _118  and  _120
REMARK   53  A    between atoms: _120  and  _121
REMARK   54  A    between atoms: _124  and  _126
REMARK   55  A    between atoms: _126  and  _127
REMARK   56  A    between atoms: _126  and  _129
REMARK   57  A    between atoms: _129  and  _130
REMARK   58  A    between atoms: _133  and  _135
REMARK   59  A    between atoms: _135  and  _136
REMARK   60  A    between atoms: _135  and  _138
REMARK   61  A    between atoms: _138  and  _139
REMARK   62  A    between atoms: _139  and  _140
REMARK   63  A    between atoms: _140  and  _141
REMARK   64  A    between atoms: _150  and  _152
REMARK   65  A    between atoms: _152  and  _153
REMARK   66  A    between atoms: _152  and  _155
REMARK   67  A    between atoms: _155  and  _156
REMARK   68  A    between atoms: _156  and  _157
REMARK   69  A    between atoms: _157  and  _158
REMARK   70  A    between atoms: _158  and  _159
REMARK   71  A    between atoms: _163  and  _165
REMARK   72  A    between atoms: _165  and  _166
REMARK   73  A    between atoms: _165  and  _168
REMARK   74  A    between atoms: _171  and  _173
REMARK   75  A    between atoms: _173  and  _174
REMARK   76  A    between atoms: _177  and  _179
REMARK   77  A    between atoms: _179  and  _180
REMARK   78  A    between atoms: _182  and  _184
REMARK   79  A    between atoms: _184  and  _185
REMARK   80  A    between atoms: _184  and  _187
REMARK   81  A    between atoms: _187  and  _188
REMARK   82  A    between atoms: _188  and  _189
REMARK   83  A    between atoms: _191  and  _193
REMARK   84  A    between atoms: _193  and  _194
REMARK   85  A    between atoms: _197  and  _199
REMARK   86  A    between atoms: _199  and  _200
REMARK   87  A    between atoms: _199  and  _202
REMARK   88  A    between atoms: _202  and  _203
REMARK   89  A    between atoms: _203  and  _204
REMARK   90  A    between atoms: _204  and  _205
REMARK   91  A    between atoms: _205  and  _206
REMARK   92  A    between atoms: _211  and  _212
REMARK   93  A    between atoms: _217  and  _219
REMARK   94  A    between atoms: _219  and  _220
REMARK   95  A    between atoms: _219  and  _222
REMARK   96  A    between atoms: _222  and  _223
REMARK   97  A    between atoms: _228  and  _230
REMARK   98  A    between atoms: _230  and  _231
REMARK   99  A    between atoms: _230  and  _233
REMARK  100  A    between atoms: _233  and  _234
REMARK  101  A    between atoms: _234  and  _235
REMARK  102  A    between atoms: _237  and  _239
REMARK  103  A    between atoms: _239  and  _240
REMARK  104  A    between atoms: _239  and  _242
REMARK  105  A    between atoms: _242  and  _243
REMARK  106  A    between atoms: _246  and  _248
REMARK  107  A    between atoms: _248  and  _249
REMARK  108  A    between atoms: _248  and  _251
REMARK  109  A    between atoms: _251  and  _252
REMARK  110  A    between atoms: _252  and  _253
REMARK  111  A    between atoms: _253  and  _254
REMARK  112  A    between atoms: _263  and  _265
REMARK  113  A    between atoms: _265  and  _266
REMARK  114  A    between atoms: _265  and  _268
REMARK  115  A    between atoms: _268  and  _269
REMARK  116  A    between atoms: _271  and  _273
REMARK  117  A    between atoms: _273  and  _274
REMARK  118  A    between atoms: _273  and  _276
REMARK  119  A    between atoms: _276  and  _277
REMARK  120  A    between atoms: _277  and  _278
REMARK  121  A    between atoms: _281  and  _283
REMARK  122  A    between atoms: _283  and  _284
REMARK  123  A    between atoms: _283  and  _286
REMARK  124  A    between atoms: _286  and  _287
REMARK  125  A    between atoms: _289  and  _291
REMARK  126  A    between atoms: _291  and  _292
REMARK  127  A    between atoms: _291  and  _294
REMARK  128  A    between atoms: _294  and  _295
REMARK  129  A    between atoms: _298  and  _300
REMARK  130  A    between atoms: _300  and  _301
REMARK  131  A    between atoms: _300  and  _303
REMARK  132  A    between atoms: _303  and  _304
REMARK  133  A    between atoms: _310  and  _312
REMARK  134  A    between atoms: _312  and  _313
REMARK  135  A    between atoms: _312  and  _315
REMARK  136  A    between atoms: _315  and  _316
REMARK  137  A    between atoms: _316  and  _317
REMARK  138  A    between atoms: _317  and  _318
REMARK  139  A    between atoms: _318  and  _319
REMARK  140  A    between atoms: _323  and  _325
REMARK  141  A    between atoms: _325  and  _326
REMARK  142  A    between atoms: _325  and  _328
REMARK  143  A    between atoms: _328  and  _329
REMARK  144  A    between atoms: _334  and  _336
REMARK  145  A    between atoms: _336  and  _337
REMARK  146  A    between atoms: _336  and  _339
REMARK  147  A    between atoms: _339  and  _340
REMARK  148  A    between atoms: _343  and  _345
REMARK  149  A    between atoms: _345  and  _346
REMARK  150  A    between atoms: _345  and  _348
REMARK  151  A    between atoms: _348  and  _349
REMARK  152  A    between atoms: _352  and  _354
REMARK  153  A    between atoms: _354  and  _355
REMARK  154  A    between atoms: _358  and  _360
REMARK  155  A    between atoms: _360  and  _361
REMARK  156  A    between atoms: _360  and  _363
REMARK  157  A    between atoms: _363  and  _364
REMARK  158  A    between atoms: _367  and  _369
REMARK  159  A    between atoms: _369  and  _370
REMARK  160  A    between atoms: _369  and  _372
REMARK  161  A    between atoms: _372  and  _373
REMARK  162  A    between atoms: _376  and  _378
REMARK  163  A    between atoms: _378  and  _379
REMARK  164  A    between atoms: _378  and  _381
REMARK  165  A    between atoms: _381  and  _382
REMARK  166  A    between atoms: _382  and  _383
REMARK  167  A    between atoms: _383  and  _384
REMARK  168  A    between atoms: _393  and  _395
REMARK  169  A    between atoms: _395  and  _396
REMARK  170  A    between atoms: _395  and  _398
REMARK  171  A    between atoms: _398  and  _399
REMARK  172  A    between atoms: _399  and  _400
REMARK  173  A    between atoms: _405  and  _407
REMARK  174  A    between atoms: _407  and  _408
REMARK  175  A    between atoms: _407  and  _410
REMARK  176  A    between atoms: _410  and  _411
REMARK  177  A    between atoms: _411  and  _412
REMARK  178  A    between atoms: _417  and  _419
REMARK  179  A    between atoms: _419  and  _420
REMARK  180  A    between atoms: _419  and  _422
REMARK  181  A    between atoms: _422  and  _423
REMARK  182  A    between atoms: _433  and  _435
REMARK  183  A    between atoms: _435  and  _436
REMARK  184  A    between atoms: _435  and  _438
REMARK  185  A    between atoms: _438  and  _439
REMARK  186  A    between atoms: _442  and  _444
REMARK  187  A    between atoms: _444  and  _445
REMARK  188  A    between atoms: _444  and  _447
REMARK  189  A    between atoms: _447  and  _448
REMARK  190  A    between atoms: _451  and  _453
REMARK  191  A    between atoms: _453  and  _454
REMARK  192  A    between atoms: _453  and  _456
REMARK  193  A    between atoms: _456  and  _457
REMARK  194  A    between atoms: _457  and  _458
REMARK  195  A    between atoms: _458  and  _459
REMARK  196  A    between atoms: _459  and  _460
REMARK  197  A    between atoms: _464  and  _466
REMARK  198  A    between atoms: _466  and  _467
REMARK  199  A    between atoms: _466  and  _469
REMARK  200  A    between atoms: _469  and  _470
REMARK  201  A    between atoms: _470  and  _471
REMARK  202  A    between atoms: _471  and  _472
REMARK  203  A    between atoms: _481  and  _483
REMARK  204  A    between atoms: _483  and  _484
REMARK  205  A    between atoms: _483  and  _486
REMARK  206  A    between atoms: _486  and  _487
REMARK  207  A    between atoms: _490  and  _492
REMARK  208  A    between atoms: _492  and  _493
REMARK  209  A    between atoms: _492  and  _495
REMARK  210  A    between atoms: _498  and  _500
REMARK  211  A    between atoms: _500  and  _501
REMARK  212  A    between atoms: _500  and  _503
REMARK  213  A    between atoms: _503  and  _504
REMARK  214  A    between atoms: _504  and  _505
REMARK  215  A    between atoms: _508  and  _510
REMARK  216  A    between atoms: _510  and  _511
REMARK  217  A    between atoms: _510  and  _513
REMARK  218  A    between atoms: _515  and  _517
REMARK  219  A    between atoms: _517  and  _518
REMARK  220  A    between atoms: _517  and  _520
REMARK  221  A    between atoms: _520  and  _521
REMARK  222  A    between atoms: _521  and  _522
REMARK  223  A    between atoms: _524  and  _526
REMARK  224  A    between atoms: _526  and  _527
REMARK  225  A    between atoms: _526  and  _529
REMARK  226  A    between atoms: _529  and  _530
REMARK  227  A    between atoms: _532  and  _534
REMARK  228  A    between atoms: _534  and  _535
REMARK  229  A    between atoms: _534  and  _537
REMARK  230  A    between atoms: _537  and  _538
REMARK  231  A    between atoms: _541  and  _543
REMARK  232  A    between atoms: _543  and  _544
REMARK  233  A    between atoms: _543  and  _546
REMARK  234  A    between atoms: _546  and  _547
REMARK  235  A    between atoms: _547  and  _548
REMARK  236  A    between atoms: _548  and  _549
REMARK  237  A    between atoms: _558  and  _560
REMARK  238  A    between atoms: _560  and  _561
REMARK  239  A    between atoms: _560  and  _563
REMARK  240  A    between atoms: _566  and  _568
REMARK  241  A    between atoms: _568  and  _569
REMARK  242  A    between atoms: _568  and  _571
REMARK  243  A    between atoms: _571  and  _572
REMARK  244  A    between atoms: _577  and  _578
REMARK                            x       y       z     vdW  Elec       q    Type
REMARK                         _______ _______ _______ _____ _____    ______ ____
ROOT
ATOM      1  O   HOH     1       8.215  13.528  -5.248  0.00  0.00    +0.000 OA
ENDROOT
TORSDOF 0
REMARK  Name = ../refined-set-2016/3hk1/3hk1_pocket.pdb
REMARK  244 active torsions:
REMARK  status: ('A' for Active; 'I' for Inactive)
REMARK    1  A    between atoms: _1  and  _3
REMARK    2  A    between atoms: _3  and  _4
REMARK    3  A    between atoms: _3  and  _6
REMARK    4  A    between atoms: _6  and  _7
REMARK    5  A    between atoms: _10  and  _12
REMARK    6  A    between atoms: _12  and  _13
REMARK    7  A    between atoms: _12  and  _15
REMARK    8  A    between atoms: _18  and  _20
REMARK    9  A    between atoms: _20  and  _21
REMARK   10  A    between atoms: _20  and  _23
REMARK   11  A    between atoms: _23  and  _24
REMARK   12  A    between atoms: _26  and  _28
REMARK   13  A    between atoms: _28  and  _29
REMARK   14  A    between atoms: _28  and  _31
REMARK   15  A    between atoms: _31  and  _32
REMARK   16  A    between atoms: _34  and  _36
REMARK   17  A    between atoms: _36  and  _37
REMARK   18  A    between atoms: _36  and  _39
REMARK   19  A    between atoms: _39  and  _40
REMARK   20  A    between atoms: _46  and  _48
REMARK   21  A    between atoms: _48  and  _49
REMARK   22  A    between atoms: _48  and  _51
REMARK   23  A    between atoms: _51  and  _52
REMARK   24  A    between atoms: _57  and  _58
REMARK   25  A    between atoms: _60  and  _62
REMARK   26  A    between atoms: _62  and  _63
REMARK   27  A    between atoms: _62  and  _65
REMARK   28  A    between atoms: _65  and  _66
REMARK   29  A    between atoms: _66  and  _67
REMARK   30  A    between atoms: _69  and  _71
REMARK   31  A    between atoms: _71  and  _72
REMARK   32  A    between atoms: _71  and  _74
REMARK   33  A    between atoms: _74  and  _75
REMARK   34  A    between atoms: _75  and  _76
REMARK   35  A    between atoms: _76  and  _77
REMARK   36  A    between atoms: _77  and  _78
REMARK   37  A    between atoms: _82  and  _84
REMARK   38  A    between atoms: _84  and  _85
REMARK   39  A    between atoms: _84  and  _87
REMARK   40  A    between atoms: _87  and  _88
REMARK   41  A    between atoms: _88  and  _89
REMARK   42  A    between atoms: _92  and  _94
REMARK   43  A    between atoms: _94  and  _95
REMARK   44  A    between atoms: _94  and  _97
REMARK   45  A    between atoms: _100  and  _102
REMARK   46  A    between atoms: _102  and  _103
REMARK   47  A    between atoms: _105  and  _107
REMARK   48  A    between atoms: _107  and  _108
REMARK   49  A    between atoms: _107  and  _110
REMARK   50  A    between atoms: _113  and  _115
REMARK   51  A    between atoms: _115  and  _116
REMARK   52  A    between atoms: _118  and  _120
REMARK   53  A    between atoms: _120  and  _121
REMARK   54  A    between atoms: _124  and  _126
REMARK   55  A    between atoms: _126  and  _127
REMARK   56  A    between atoms: _126  and  _129
REMARK   57  A    between atoms: _129  and  _130
REMARK   58  A    between atoms: _133  and  _135
REMARK   59  A    between atoms: _135  and  _136
REMARK   60  A    between atoms: _135  and  _138
REMARK   61  A    between atoms: _138  and  _139
REMARK   62  A    between atoms: _139  and  _140
REMARK   63  A    between atoms: _140  and  _141
REMARK   64  A    between atoms: _150  and  _152
REMARK   65  A    between atoms: _152  and  _153
REMARK   66  A    between atoms: _152  and  _155
REMARK   67  A    between atoms: _155  and  _156
REMARK   68  A    between atoms: _156  and  _157
REMARK   69  A    between atoms: _157  and  _158
REMARK   70  A    between atoms: _158  and  _159
REMARK   71  A    between atoms: _163  and  _165
REMARK   72  A    between atoms: _165  and  _166
REMARK   73  A    between atoms: _165  and  _168
REMARK   74  A    between atoms: _171  and  _173
REMARK   75  A    between atoms: _173  and  _174
REMARK   76  A    between atoms: _177  and  _179
REMARK   77  A    between atoms: _179  and  _180
REMARK   78  A    between atoms: _182  and  _184
REMARK   79  A    between atoms: _184  and  _185
REMARK   80  A    between atoms: _184  and  _187
REMARK   81  A    between atoms: _187  and  _188
REMARK   82  A    between atoms: _188  and  _189
REMARK   83  A    between atoms: _191  and  _193
REMARK   84  A    between atoms: _193  and  _194
REMARK   85  A    between atoms: _197  and  _199
REMARK   86  A    between atoms: _199  and  _200
REMARK   87  A    between atoms: _199  and  _202
REMARK   88  A    between atoms: _202  and  _203
REMARK   89  A    between atoms: _203  and  _204
REMARK   90  A    between atoms: _204  and  _205
REMARK   91  A    between atoms: _205  and  _206
REMARK   92  A    between atoms: _211  and  _212
REMARK   93  A    between atoms: _217  and  _219
REMARK   94  A    between atoms: _219  and  _220
REMARK   95  A    between atoms: _219  and  _222
REMARK   96  A    between atoms: _222  and  _223
REMARK   97  A    between atoms: _228  and  _230
REMARK   98  A    between atoms: _230  and  _231
REMARK   99  A    between atoms: _230  and  _233
REMARK  100  A    between atoms: _233  and  _234
REMARK  101  A    between atoms: _234  and  _235
REMARK  102  A    between atoms: _237  and  _239
REMARK  103  A    between atoms: _239  and  _240
REMARK  104  A    between atoms: _239  and  _242
REMARK  105  A    between atoms: _242  and  _243
REMARK  106  A    between atoms: _246  and  _248
REMARK  107  A    between atoms: _248  and  _249
REMARK  108  A    between atoms: _248  and  _251
REMARK  109  A    between atoms: _251  and  _252
REMARK  110  A    between atoms: _252  and  _253
REMARK  111  A    between atoms: _253  and  _254
REMARK  112  A    between atoms: _263  and  _265
REMARK  113  A    between atoms: _265  and  _266
REMARK  114  A    between atoms: _265  and  _268
REMARK  115  A    between atoms: _268  and  _269
REMARK  116  A    between atoms: _271  and  _273
REMARK  117  A    between atoms: _273  and  _274
REMARK  118  A    between atoms: _273  and  _276
REMARK  119  A    between atoms: _276  and  _277
REMARK  120  A    between atoms: _277  and  _278
REMARK  121  A    between atoms: _281  and  _283
REMARK  122  A    between atoms: _283  and  _284
REMARK  123  A    between atoms: _283  and  _286
REMARK  124  A    between atoms: _286  and  _287
REMARK  125  A    between atoms: _289  and  _291
REMARK  126  A    between atoms: _291  and  _292
REMARK  127  A    between atoms: _291  and  _294
REMARK  128  A    between atoms: _294  and  _295
REMARK  129  A    between atoms: _298  and  _300
REMARK  130  A    between atoms: _300  and  _301
REMARK  131  A    between atoms: _300  and  _303
REMARK  132  A    between atoms: _303  and  _304
REMARK  133  A    between atoms: _310  and  _312
REMARK  134  A    between atoms: _312  and  _313
REMARK  135  A    between atoms: _312  and  _315
REMARK  136  A    between atoms: _315  and  _316
REMARK  137  A    between atoms: _316  and  _317
REMARK  138  A    between atoms: _317  and  _318
REMARK  139  A    between atoms: _318  and  _319
REMARK  140  A    between atoms: _323  and  _325
REMARK  141  A    between atoms: _325  and  _326
REMARK  142  A    between atoms: _325  and  _328
REMARK  143  A    between atoms: _328  and  _329
REMARK  144  A    between atoms: _334  and  _336
REMARK  145  A    between atoms: _336  and  _337
REMARK  146  A    between atoms: _336  and  _339
REMARK  147  A    between atoms: _339  and  _340
REMARK  148  A    between atoms: _343  and  _345
REMARK  149  A    between atoms: _345  and  _346
REMARK  150  A    between atoms: _345  and  _348
REMARK  151  A    between atoms: _348  and  _349
REMARK  152  A    between atoms: _352  and  _354
REMARK  153  A    between atoms: _354  and  _355
REMARK  154  A    between atoms: _358  and  _360
REMARK  155  A    between atoms: _360  and  _361
REMARK  156  A    between atoms: _360  and  _363
REMARK  157  A    between atoms: _363  and  _364
REMARK  158  A    between atoms: _367  and  _369
REMARK  159  A    between atoms: _369  and  _370
REMARK  160  A    between atoms: _369  and  _372
REMARK  161  A    between atoms: _372  and  _373
REMARK  162  A    between atoms: _376  and  _378
REMARK  163  A    between atoms: _378  and  _379
REMARK  164  A    between atoms: _378  and  _381
REMARK  165  A    between atoms: _381  and  _382
REMARK  166  A    between atoms: _382  and  _383
REMARK  167  A    between atoms: _383  and  _384
REMARK  168  A    between atoms: _393  and  _395
REMARK  169  A    between atoms: _395  and  _396
REMARK  170  A    between atoms: _395  and  _398
REMARK  171  A    between atoms: _398  and  _399
REMARK  172  A    between atoms: _399  and  _400
REMARK  173  A    between atoms: _405  and  _407
REMARK  174  A    between atoms: _407  and  _408
REMARK  175  A    between atoms: _407  and  _410
REMARK  176  A    between atoms: _410  and  _411
REMARK  177  A    between atoms: _411  and  _412
REMARK  178  A    between atoms: _417  and  _419
REMARK  179  A    between atoms: _419  and  _420
REMARK  180  A    between atoms: _419  and  _422
REMARK  181  A    between atoms: _422  and  _423
REMARK  182  A    between atoms: _433  and  _435
REMARK  183  A    between atoms: _435  and  _436
REMARK  184  A    between atoms: _435  and  _438
REMARK  185  A    between atoms: _438  and  _439
REMARK  186  A    between atoms: _442  and  _444
REMARK  187  A    between atoms: _444  and  _445
REMARK  188  A    between atoms: _444  and  _447
REMARK  189  A    between atoms: _447  and  _448
REMARK  190  A    between atoms: _451  and  _453
REMARK  191  A    between atoms: _453  and  _454
REMARK  192  A    between atoms: _453  and  _456
REMARK  193  A    between atoms: _456  and  _457
REMARK  194  A    between atoms: _457  and  _458
REMARK  195  A    between atoms: _458  and  _459
REMARK  196  A    between atoms: _459  and  _460
REMARK  197  A    between atoms: _464  and  _466
REMARK  198  A    between atoms: _466  and  _467
REMARK  199  A    between atoms: _466  and  _469
REMARK  200  A    between atoms: _469  and  _470
REMARK  201  A    between atoms: _470  and  _471
REMARK  202  A    between atoms: _471  and  _472
REMARK  203  A    between atoms: _481  and  _483
REMARK  204  A    between atoms: _483  and  _484
REMARK  205  A    between atoms: _483  and  _486
REMARK  206  A    between atoms: _486  and  _487
REMARK  207  A    between atoms: _490  and  _492
REMARK  208  A    between atoms: _492  and  _493
REMARK  209  A    between atoms: _492  and  _495
REMARK  210  A    between atoms: _498  and  _500
REMARK  211  A    between atoms: _500  and  _501
REMARK  212  A    between atoms: _500  and  _503
REMARK  213  A    between atoms: _503  and  _504
REMARK  214  A    between atoms: _504  and  _505
REMARK  215  A    between atoms: _508  and  _510
REMARK  216  A    between atoms: _510  and  _511
REMARK  217  A    between atoms: _510  and  _513
REMARK  218  A    between atoms: _515  and  _517
REMARK  219  A    between atoms: _517  and  _518
REMARK  220  A    between atoms: _517  and  _520
REMARK  221  A    between atoms: _520  and  _521
REMARK  222  A    between atoms: _521  and  _522
REMARK  223  A    between atoms: _524  and  _526
REMARK  224  A    between atoms: _526  and  _527
REMARK  225  A    between atoms: _526  and  _529
REMARK  226  A    between atoms: _529  and  _530
REMARK  227  A    between atoms: _532  and  _534
REMARK  228  A    between atoms: _534  and  _535
REMARK  229  A    between atoms: _534  and  _537
REMARK  230  A    between atoms: _537  and  _538
REMARK  231  A    between atoms: _541  and  _543
REMARK  232  A    between atoms: _543  and  _544
REMARK  233  A    between atoms: _543  and  _546
REMARK  234  A    between atoms: _546  and  _547
REMARK  235  A    between atoms: _547  and  _548
REMARK  236  A    between atoms: _548  and  _549
REMARK  237  A    between atoms: _558  and  _560
REMARK  238  A    between atoms: _560  and  _561
REMARK  239  A    between atoms: _560  and  _563
REMARK  240  A    between atoms: _566  and  _568
REMARK  241  A    between atoms: _568  and  _569
REMARK  242  A    between atoms: _568  and  _571
REMARK  243  A    between atoms: _571  and  _572
REMARK  244  A    between atoms: _577  and  _578
REMARK                            x       y       z     vdW  Elec       q    Type
REMARK                         _______ _______ _______ _____ _____    ______ ____
ROOT
ATOM      1  O   HOH     1       8.335  12.915  -7.098  0.00  0.00    +0.000 OA
ENDROOT
TORSDOF 0
REMARK  Name = ../refined-set-2016/3hk1/3hk1_pocket.pdb
REMARK  244 active torsions:
REMARK  status: ('A' for Active; 'I' for Inactive)
REMARK    1  A    between atoms: _1  and  _3
REMARK    2  A    between atoms: _3  and  _4
REMARK    3  A    between atoms: _3  and  _6
REMARK    4  A    between atoms: _6  and  _7
REMARK    5  A    between atoms: _10  and  _12
REMARK    6  A    between atoms: _12  and  _13
REMARK    7  A    between atoms: _12  and  _15
REMARK    8  A    between atoms: _18  and  _20
REMARK    9  A    between atoms: _20  and  _21
REMARK   10  A    between atoms: _20  and  _23
REMARK   11  A    between atoms: _23  and  _24
REMARK   12  A    between atoms: _26  and  _28
REMARK   13  A    between atoms: _28  and  _29
REMARK   14  A    between atoms: _28  and  _31
REMARK   15  A    between atoms: _31  and  _32
REMARK   16  A    between atoms: _34  and  _36
REMARK   17  A    between atoms: _36  and  _37
REMARK   18  A    between atoms: _36  and  _39
REMARK   19  A    between atoms: _39  and  _40
REMARK   20  A    between atoms: _46  and  _48
REMARK   21  A    between atoms: _48  and  _49
REMARK   22  A    between atoms: _48  and  _51
REMARK   23  A    between atoms: _51  and  _52
REMARK   24  A    between atoms: _57  and  _58
REMARK   25  A    between atoms: _60  and  _62
REMARK   26  A    between atoms: _62  and  _63
REMARK   27  A    between atoms: _62  and  _65
REMARK   28  A    between atoms: _65  and  _66
REMARK   29  A    between atoms: _66  and  _67
REMARK   30  A    between atoms: _69  and  _71
REMARK   31  A    between atoms: _71  and  _72
REMARK   32  A    between atoms: _71  and  _74
REMARK   33  A    between atoms: _74  and  _75
REMARK   34  A    between atoms: _75  and  _76
REMARK   35  A    between atoms: _76  and  _77
REMARK   36  A    between atoms: _77  and  _78
REMARK   37  A    between atoms: _82  and  _84
REMARK   38  A    between atoms: _84  and  _85
REMARK   39  A    between atoms: _84  and  _87
REMARK   40  A    between atoms: _87  and  _88
REMARK   41  A    between atoms: _88  and  _89
REMARK   42  A    between atoms: _92  and  _94
REMARK   43  A    between atoms: _94  and  _95
REMARK   44  A    between atoms: _94  and  _97
REMARK   45  A    between atoms: _100  and  _102
REMARK   46  A    between atoms: _102  and  _103
REMARK   47  A    between atoms: _105  and  _107
REMARK   48  A    between atoms: _107  and  _108
REMARK   49  A    between atoms: _107  and  _110
REMARK   50  A    between atoms: _113  and  _115
REMARK   51  A    between atoms: _115  and  _116
REMARK   52  A    between atoms: _118  and  _120
REMARK   53  A    between atoms: _120  and  _121
REMARK   54  A    between atoms: _124  and  _126
REMARK   55  A    between atoms: _126  and  _127
REMARK   56  A    between atoms: _126  and  _129
REMARK   57  A    between atoms: _129  and  _130
REMARK   58  A    between atoms: _133  and  _135
REMARK   59  A    between atoms: _135  and  _136
REMARK   60  A    between atoms: _135  and  _138
REMARK   61  A    between atoms: _138  and  _139
REMARK   62  A    between atoms: _139  and  _140
REMARK   63  A    between atoms: _140  and  _141
REMARK   64  A    between atoms: _150  and  _152
REMARK   65  A    between atoms: _152  and  _153
REMARK   66  A    between atoms: _152  and  _155
REMARK   67  A    between atoms: _155  and  _156
REMARK   68  A    between atoms: _156  and  _157
REMARK   69  A    between atoms: _157  and  _158
REMARK   70  A    between atoms: _158  and  _159
REMARK   71  A    between atoms: _163  and  _165
REMARK   72  A    between atoms: _165  and  _166
REMARK   73  A    between atoms: _165  and  _168
REMARK   74  A    between atoms: _171  and  _173
REMARK   75  A    between atoms: _173  and  _174
REMARK   76  A    between atoms: _177  and  _179
REMARK   77  A    between atoms: _179  and  _180
REMARK   78  A    between atoms: _182  and  _184
REMARK   79  A    between atoms: _184  and  _185
REMARK   80  A    between atoms: _184  and  _187
REMARK   81  A    between atoms: _187  and  _188
REMARK   82  A    between atoms: _188  and  _189
REMARK   83  A    between atoms: _191  and  _193
REMARK   84  A    between atoms: _193  and  _194
REMARK   85  A    between atoms: _197  and  _199
REMARK   86  A    between atoms: _199  and  _200
REMARK   87  A    between atoms: _199  and  _202
REMARK   88  A    between atoms: _202  and  _203
REMARK   89  A    between atoms: _203  and  _204
REMARK   90  A    between atoms: _204  and  _205
REMARK   91  A    between atoms: _205  and  _206
REMARK   92  A    between atoms: _211  and  _212
REMARK   93  A    between atoms: _217  and  _219
REMARK   94  A    between atoms: _219  and  _220
REMARK   95  A    between atoms: _219  and  _222
REMARK   96  A    between atoms: _222  and  _223
REMARK   97  A    between atoms: _228  and  _230
REMARK   98  A    between atoms: _230  and  _231
REMARK   99  A    between atoms: _230  and  _233
REMARK  100  A    between atoms: _233  and  _234
REMARK  101  A    between atoms: _234  and  _235
REMARK  102  A    between atoms: _237  and  _239
REMARK  103  A    between atoms: _239  and  _240
REMARK  104  A    between atoms: _239  and  _242
REMARK  105  A    between atoms: _242  and  _243
REMARK  106  A    between atoms: _246  and  _248
REMARK  107  A    between atoms: _248  and  _249
REMARK  108  A    between atoms: _248  and  _251
REMARK  109  A    between atoms: _251  and  _252
REMARK  110  A    between atoms: _252  and  _253
REMARK  111  A    between atoms: _253  and  _254
REMARK  112  A    between atoms: _263  and  _265
REMARK  113  A    between atoms: _265  and  _266
REMARK  114  A    between atoms: _265  and  _268
REMARK  115  A    between atoms: _268  and  _269
REMARK  116  A    between atoms: _271  and  _273
REMARK  117  A    between atoms: _273  and  _274
REMARK  118  A    between atoms: _273  and  _276
REMARK  119  A    between atoms: _276  and  _277
REMARK  120  A    between atoms: _277  and  _278
REMARK  121  A    between atoms: _281  and  _283
REMARK  122  A    between atoms: _283  and  _284
REMARK  123  A    between atoms: _283  and  _286
REMARK  124  A    between atoms: _286  and  _287
REMARK  125  A    between atoms: _289  and  _291
REMARK  126  A    between atoms: _291  and  _292
REMARK  127  A    between atoms: _291  and  _294
REMARK  128  A    between atoms: _294  and  _295
REMARK  129  A    between atoms: _298  and  _300
REMARK  130  A    between atoms: _300  and  _301
REMARK  131  A    between atoms: _300  and  _303
REMARK  132  A    between atoms: _303  and  _304
REMARK  133  A    between atoms: _310  and  _312
REMARK  134  A    between atoms: _312  and  _313
REMARK  135  A    between atoms: _312  and  _315
REMARK  136  A    between atoms: _315  and  _316
REMARK  137  A    between atoms: _316  and  _317
REMARK  138  A    between atoms: _317  and  _318
REMARK  139  A    between atoms: _318  and  _319
REMARK  140  A    between atoms: _323  and  _325
REMARK  141  A    between atoms: _325  and  _326
REMARK  142  A    between atoms: _325  and  _328
REMARK  143  A    between atoms: _328  and  _329
REMARK  144  A    between atoms: _334  and  _336
REMARK  145  A    between atoms: _336  and  _337
REMARK  146  A    between atoms: _336  and  _339
REMARK  147  A    between atoms: _339  and  _340
REMARK  148  A    between atoms: _343  and  _345
REMARK  149  A    between atoms: _345  and  _346
REMARK  150  A    between atoms: _345  and  _348
REMARK  151  A    between atoms: _348  and  _349
REMARK  152  A    between atoms: _352  and  _354
REMARK  153  A    between atoms: _354  and  _355
REMARK  154  A    between atoms: _358  and  _360
REMARK  155  A    between atoms: _360  and  _361
REMARK  156  A    between atoms: _360  and  _363
REMARK  157  A    between atoms: _363  and  _364
REMARK  158  A    between atoms: _367  and  _369
REMARK  159  A    between atoms: _369  and  _370
REMARK  160  A    between atoms: _369  and  _372
REMARK  161  A    between atoms: _372  and  _373
REMARK  162  A    between atoms: _376  and  _378
REMARK  163  A    between atoms: _378  and  _379
REMARK  164  A    between atoms: _378  and  _381
REMARK  165  A    between atoms: _381  and  _382
REMARK  166  A    between atoms: _382  and  _383
REMARK  167  A    between atoms: _383  and  _384
REMARK  168  A    between atoms: _393  and  _395
REMARK  169  A    between atoms: _395  and  _396
REMARK  170  A    between atoms: _395  and  _398
REMARK  171  A    between atoms: _398  and  _399
REMARK  172  A    between atoms: _399  and  _400
REMARK  173  A    between atoms: _405  and  _407
REMARK  174  A    between atoms: _407  and  _408
REMARK  175  A    between atoms: _407  and  _410
REMARK  176  A    between atoms: _410  and  _411
REMARK  177  A    between atoms: _411  and  _412
REMARK  178  A    between atoms: _417  and  _419
REMARK  179  A    between atoms: _419  and  _420
REMARK  180  A    between atoms: _419  and  _422
REMARK  181  A    between atoms: _422  and  _423
REMARK  182  A    between atoms: _433  and  _435
REMARK  183  A    between atoms: _435  and  _436
REMARK  184  A    between atoms: _435  and  _438
REMARK  185  A    between atoms: _438  and  _439
REMARK  186  A    between atoms: _442  and  _444
REMARK  187  A    between atoms: _444  and  _445
REMARK  188  A    between atoms: _444  and  _447
REMARK  189  A    between atoms: _447  and  _448
REMARK  190  A    between atoms: _451  and  _453
REMARK  191  A    between atoms: _453  and  _454
REMARK  192  A    between atoms: _453  and  _456
REMARK  193  A    between atoms: _456  and  _457
REMARK  194  A    between atoms: _457  and  _458
REMARK  195  A    between atoms: _458  and  _459
REMARK  196  A    between atoms: _459  and  _460
REMARK  197  A    between atoms: _464  and  _466
REMARK  198  A    between atoms: _466  and  _467
REMARK  199  A    between atoms: _466  and  _469
REMARK  200  A    between atoms: _469  and  _470
REMARK  201  A    between atoms: _470  and  _471
REMARK  202  A    between atoms: _471  and  _472
REMARK  203  A    between atoms: _481  and  _483
REMARK  204  A    between atoms: _483  and  _484
REMARK  205  A    between atoms: _483  and  _486
REMARK  206  A    between atoms: _486  and  _487
REMARK  207  A    between atoms: _490  and  _492
REMARK  208  A    between atoms: _492  and  _493
REMARK  209  A    between atoms: _492  and  _495
REMARK  210  A    between atoms: _498  and  _500
REMARK  211  A    between atoms: _500  and  _501
REMARK  212  A    between atoms: _500  and  _503
REMARK  213  A    between atoms: _503  and  _504
REMARK  214  A    between atoms: _504  and  _505
REMARK  215  A    between atoms: _508  and  _510
REMARK  216  A    between atoms: _510  and  _511
REMARK  217  A    between atoms: _510  and  _513
REMARK  218  A    between atoms: _515  and  _517
REMARK  219  A    between atoms: _517  and  _518
REMARK  220  A    between atoms: _517  and  _520
REMARK  221  A    between atoms: _520  and  _521
REMARK  222  A    between atoms: _521  and  _522
REMARK  223  A    between atoms: _524  and  _526
REMARK  224  A    between atoms: _526  and  _527
REMARK  225  A    between atoms: _526  and  _529
REMARK  226  A    between atoms: _529  and  _530
REMARK  227  A    between atoms: _532  and  _534
REMARK  228  A    between atoms: _534  and  _535
REMARK  229  A    between atoms: _534  and  _537
REMARK  230  A    between atoms: _537  and  _538
REMARK  231  A    between atoms: _541  and  _543
REMARK  232  A    between atoms: _543  and  _544
REMARK  233  A    between atoms: _543  and  _546
REMARK  234  A    between atoms: _546  and  _547
REMARK  235  A    between atoms: _547  and  _548
REMARK  236  A    between atoms: _548  and  _549
REMARK  237  A    between atoms: _558  and  _560
REMARK  238  A    between atoms: _560  and  _561
REMARK  239  A    between atoms: _560  and  _563
REMARK  240  A    between atoms: _566  and  _568
REMARK  241  A    between atoms: _568  and  _569
REMARK  242  A    between atoms: _568  and  _571
REMARK  243  A    between atoms: _571  and  _572
REMARK  244  A    between atoms: _577  and  _578
REMARK                            x       y       z     vdW  Elec       q    Type
REMARK                         _______ _______ _______ _____ _____    ______ ____
ROOT
ATOM      1  O   HOH     1      11.858  25.588  -5.264  0.00  0.00    +0.000 OA
ENDROOT
TORSDOF 0
REMARK  Name = ../refined-set-2016/3hk1/3hk1_pocket.pdb
REMARK  244 active torsions:
REMARK  status: ('A' for Active; 'I' for Inactive)
REMARK    1  A    between atoms: _1  and  _3
REMARK    2  A    between atoms: _3  and  _4
REMARK    3  A    between atoms: _3  and  _6
REMARK    4  A    between atoms: _6  and  _7
REMARK    5  A    between atoms: _10  and  _12
REMARK    6  A    between atoms: _12  and  _13
REMARK    7  A    between atoms: _12  and  _15
REMARK    8  A    between atoms: _18  and  _20
REMARK    9  A    between atoms: _20  and  _21
REMARK   10  A    between atoms: _20  and  _23
REMARK   11  A    between atoms: _23  and  _24
REMARK   12  A    between atoms: _26  and  _28
REMARK   13  A    between atoms: _28  and  _29
REMARK   14  A    between atoms: _28  and  _31
REMARK   15  A    between atoms: _31  and  _32
REMARK   16  A    between atoms: _34  and  _36
REMARK   17  A    between atoms: _36  and  _37
REMARK   18  A    between atoms: _36  and  _39
REMARK   19  A    between atoms: _39  and  _40
REMARK   20  A    between atoms: _46  and  _48
REMARK   21  A    between atoms: _48  and  _49
REMARK   22  A    between atoms: _48  and  _51
REMARK   23  A    between atoms: _51  and  _52
REMARK   24  A    between atoms: _57  and  _58
REMARK   25  A    between atoms: _60  and  _62
REMARK   26  A    between atoms: _62  and  _63
REMARK   27  A    between atoms: _62  and  _65
REMARK   28  A    between atoms: _65  and  _66
REMARK   29  A    between atoms: _66  and  _67
REMARK   30  A    between atoms: _69  and  _71
REMARK   31  A    between atoms: _71  and  _72
REMARK   32  A    between atoms: _71  and  _74
REMARK   33  A    between atoms: _74  and  _75
REMARK   34  A    between atoms: _75  and  _76
REMARK   35  A    between atoms: _76  and  _77
REMARK   36  A    between atoms: _77  and  _78
REMARK   37  A    between atoms: _82  and  _84
REMARK   38  A    between atoms: _84  and  _85
REMARK   39  A    between atoms: _84  and  _87
REMARK   40  A    between atoms: _87  and  _88
REMARK   41  A    between atoms: _88  and  _89
REMARK   42  A    between atoms: _92  and  _94
REMARK   43  A    between atoms: _94  and  _95
REMARK   44  A    between atoms: _94  and  _97
REMARK   45  A    between atoms: _100  and  _102
REMARK   46  A    between atoms: _102  and  _103
REMARK   47  A    between atoms: _105  and  _107
REMARK   48  A    between atoms: _107  and  _108
REMARK   49  A    between atoms: _107  and  _110
REMARK   50  A    between atoms: _113  and  _115
REMARK   51  A    between atoms: _115  and  _116
REMARK   52  A    between atoms: _118  and  _120
REMARK   53  A    between atoms: _120  and  _121
REMARK   54  A    between atoms: _124  and  _126
REMARK   55  A    between atoms: _126  and  _127
REMARK   56  A    between atoms: _126  and  _129
REMARK   57  A    between atoms: _129  and  _130
REMARK   58  A    between atoms: _133  and  _135
REMARK   59  A    between atoms: _135  and  _136
REMARK   60  A    between atoms: _135  and  _138
REMARK   61  A    between atoms: _138  and  _139
REMARK   62  A    between atoms: _139  and  _140
REMARK   63  A    between atoms: _140  and  _141
REMARK   64  A    between atoms: _150  and  _152
REMARK   65  A    between atoms: _152  and  _153
REMARK   66  A    between atoms: _152  and  _155
REMARK   67  A    between atoms: _155  and  _156
REMARK   68  A    between atoms: _156  and  _157
REMARK   69  A    between atoms: _157  and  _158
REMARK   70  A    between atoms: _158  and  _159
REMARK   71  A    between atoms: _163  and  _165
REMARK   72  A    between atoms: _165  and  _166
REMARK   73  A    between atoms: _165  and  _168
REMARK   74  A    between atoms: _171  and  _173
REMARK   75  A    between atoms: _173  and  _174
REMARK   76  A    between atoms: _177  and  _179
REMARK   77  A    between atoms: _179  and  _180
REMARK   78  A    between atoms: _182  and  _184
REMARK   79  A    between atoms: _184  and  _185
REMARK   80  A    between atoms: _184  and  _187
REMARK   81  A    between atoms: _187  and  _188
REMARK   82  A    between atoms: _188  and  _189
REMARK   83  A    between atoms: _191  and  _193
REMARK   84  A    between atoms: _193  and  _194
REMARK   85  A    between atoms: _197  and  _199
REMARK   86  A    between atoms: _199  and  _200
REMARK   87  A    between atoms: _199  and  _202
REMARK   88  A    between atoms: _202  and  _203
REMARK   89  A    between atoms: _203  and  _204
REMARK   90  A    between atoms: _204  and  _205
REMARK   91  A    between atoms: _205  and  _206
REMARK   92  A    between atoms: _211  and  _212
REMARK   93  A    between atoms: _217  and  _219
REMARK   94  A    between atoms: _219  and  _220
REMARK   95  A    between atoms: _219  and  _222
REMARK   96  A    between atoms: _222  and  _223
REMARK   97  A    between atoms: _228  and  _230
REMARK   98  A    between atoms: _230  and  _231
REMARK   99  A    between atoms: _230  and  _233
REMARK  100  A    between atoms: _233  and  _234
REMARK  101  A    between atoms: _234  and  _235
REMARK  102  A    between atoms: _237  and  _239
REMARK  103  A    between atoms: _239  and  _240
REMARK  104  A    between atoms: _239  and  _242
REMARK  105  A    between atoms: _242  and  _243
REMARK  106  A    between atoms: _246  and  _248
REMARK  107  A    between atoms: _248  and  _249
REMARK  108  A    between atoms: _248  and  _251
REMARK  109  A    between atoms: _251  and  _252
REMARK  110  A    between atoms: _252  and  _253
REMARK  111  A    between atoms: _253  and  _254
REMARK  112  A    between atoms: _263  and  _265
REMARK  113  A    between atoms: _265  and  _266
REMARK  114  A    between atoms: _265  and  _268
REMARK  115  A    between atoms: _268  and  _269
REMARK  116  A    between atoms: _271  and  _273
REMARK  117  A    between atoms: _273  and  _274
REMARK  118  A    between atoms: _273  and  _276
REMARK  119  A    between atoms: _276  and  _277
REMARK  120  A    between atoms: _277  and  _278
REMARK  121  A    between atoms: _281  and  _283
REMARK  122  A    between atoms: _283  and  _284
REMARK  123  A    between atoms: _283  and  _286
REMARK  124  A    between atoms: _286  and  _287
REMARK  125  A    between atoms: _289  and  _291
REMARK  126  A    between atoms: _291  and  _292
REMARK  127  A    between atoms: _291  and  _294
REMARK  128  A    between atoms: _294  and  _295
REMARK  129  A    between atoms: _298  and  _300
REMARK  130  A    between atoms: _300  and  _301
REMARK  131  A    between atoms: _300  and  _303
REMARK  132  A    between atoms: _303  and  _304
REMARK  133  A    between atoms: _310  and  _312
REMARK  134  A    between atoms: _312  and  _313
REMARK  135  A    between atoms: _312  and  _315
REMARK  136  A    between atoms: _315  and  _316
REMARK  137  A    between atoms: _316  and  _317
REMARK  138  A    between atoms: _317  and  _318
REMARK  139  A    between atoms: _318  and  _319
REMARK  140  A    between atoms: _323  and  _325
REMARK  141  A    between atoms: _325  and  _326
REMARK  142  A    between atoms: _325  and  _328
REMARK  143  A    between atoms: _328  and  _329
REMARK  144  A    between atoms: _334  and  _336
REMARK  145  A    between atoms: _336  and  _337
REMARK  146  A    between atoms: _336  and  _339
REMARK  147  A    between atoms: _339  and  _340
REMARK  148  A    between atoms: _343  and  _345
REMARK  149  A    between atoms: _345  and  _346
REMARK  150  A    between atoms: _345  and  _348
REMARK  151  A    between atoms: _348  and  _349
REMARK  152  A    between atoms: _352  and  _354
REMARK  153  A    between atoms: _354  and  _355
REMARK  154  A    between atoms: _358  and  _360
REMARK  155  A    between atoms: _360  and  _361
REMARK  156  A    between atoms: _360  and  _363
REMARK  157  A    between atoms: _363  and  _364
REMARK  158  A    between atoms: _367  and  _369
REMARK  159  A    between atoms: _369  and  _370
REMARK  160  A    between atoms: _369  and  _372
REMARK  161  A    between atoms: _372  and  _373
REMARK  162  A    between atoms: _376  and  _378
REMARK  163  A    between atoms: _378  and  _379
REMARK  164  A    between atoms: _378  and  _381
REMARK  165  A    between atoms: _381  and  _382
REMARK  166  A    between atoms: _382  and  _383
REMARK  167  A    between atoms: _383  and  _384
REMARK  168  A    between atoms: _393  and  _395
REMARK  169  A    between atoms: _395  and  _396
REMARK  170  A    between atoms: _395  and  _398
REMARK  171  A    between atoms: _398  and  _399
REMARK  172  A    between atoms: _399  and  _400
REMARK  173  A    between atoms: _405  and  _407
REMARK  174  A    between atoms: _407  and  _408
REMARK  175  A    between atoms: _407  and  _410
REMARK  176  A    between atoms: _410  and  _411
REMARK  177  A    between atoms: _411  and  _412
REMARK  178  A    between atoms: _417  and  _419
REMARK  179  A    between atoms: _419  and  _420
REMARK  180  A    between atoms: _419  and  _422
REMARK  181  A    between atoms: _422  and  _423
REMARK  182  A    between atoms: _433  and  _435
REMARK  183  A    between atoms: _435  and  _436
REMARK  184  A    between atoms: _435  and  _438
REMARK  185  A    between atoms: _438  and  _439
REMARK  186  A    between atoms: _442  and  _444
REMARK  187  A    between atoms: _444  and  _445
REMARK  188  A    between atoms: _444  and  _447
REMARK  189  A    between atoms: _447  and  _448
REMARK  190  A    between atoms: _451  and  _453
REMARK  191  A    between atoms: _453  and  _454
REMARK  192  A    between atoms: _453  and  _456
REMARK  193  A    between atoms: _456  and  _457
REMARK  194  A    between atoms: _457  and  _458
REMARK  195  A    between atoms: _458  and  _459
REMARK  196  A    between atoms: _459  and  _460
REMARK  197  A    between atoms: _464  and  _466
REMARK  198  A    between atoms: _466  and  _467
REMARK  199  A    between atoms: _466  and  _469
REMARK  200  A    between atoms: _469  and  _470
REMARK  201  A    between atoms: _470  and  _471
REMARK  202  A    between atoms: _471  and  _472
REMARK  203  A    between atoms: _481  and  _483
REMARK  204  A    between atoms: _483  and  _484
REMARK  205  A    between atoms: _483  and  _486
REMARK  206  A    between atoms: _486  and  _487
REMARK  207  A    between atoms: _490  and  _492
REMARK  208  A    between atoms: _492  and  _493
REMARK  209  A    between atoms: _492  and  _495
REMARK  210  A    between atoms: _498  and  _500
REMARK  211  A    between atoms: _500  and  _501
REMARK  212  A    between atoms: _500  and  _503
REMARK  213  A    between atoms: _503  and  _504
REMARK  214  A    between atoms: _504  and  _505
REMARK  215  A    between atoms: _508  and  _510
REMARK  216  A    between atoms: _510  and  _511
REMARK  217  A    between atoms: _510  and  _513
REMARK  218  A    between atoms: _515  and  _517
REMARK  219  A    between atoms: _517  and  _518
REMARK  220  A    between atoms: _517  and  _520
REMARK  221  A    between atoms: _520  and  _521
REMARK  222  A    between atoms: _521  and  _522
REMARK  223  A    between atoms: _524  and  _526
REMARK  224  A    between atoms: _526  and  _527
REMARK  225  A    between atoms: _526  and  _529
REMARK  226  A    between atoms: _529  and  _530
REMARK  227  A    between atoms: _532  and  _534
REMARK  228  A    between atoms: _534  and  _535
REMARK  229  A    between atoms: _534  and  _537
REMARK  230  A    between atoms: _537  and  _538
REMARK  231  A    between atoms: _541  and  _543
REMARK  232  A    between atoms: _543  and  _544
REMARK  233  A    between atoms: _543  and  _546
REMARK  234  A    between atoms: _546  and  _547
REMARK  235  A    between atoms: _547  and  _548
REMARK  236  A    between atoms: _548  and  _549
REMARK  237  A    between atoms: _558  and  _560
REMARK  238  A    between atoms: _560  and  _561
REMARK  239  A    between atoms: _560  and  _563
REMARK  240  A    between atoms: _566  and  _568
REMARK  241  A    between atoms: _568  and  _569
REMARK  242  A    between atoms: _568  and  _571
REMARK  243  A    between atoms: _571  and  _572
REMARK  244  A    between atoms: _577  and  _578
REMARK                            x       y       z     vdW  Elec       q    Type
REMARK                         _______ _______ _______ _____ _____    ______ ____
ROOT
ATOM      1  O   HOH     1      18.058  18.326 -15.963  0.00  0.00    +0.000 OA
ENDROOT
TORSDOF 0
REMARK  Name = ../refined-set-2016/3hk1/3hk1_pocket.pdb
REMARK  244 active torsions:
REMARK  status: ('A' for Active; 'I' for Inactive)
REMARK    1  A    between atoms: _1  and  _3
REMARK    2  A    between atoms: _3  and  _4
REMARK    3  A    between atoms: _3  and  _6
REMARK    4  A    between atoms: _6  and  _7
REMARK    5  A    between atoms: _10  and  _12
REMARK    6  A    between atoms: _12  and  _13
REMARK    7  A    between atoms: _12  and  _15
REMARK    8  A    between atoms: _18  and  _20
REMARK    9  A    between atoms: _20  and  _21
REMARK   10  A    between atoms: _20  and  _23
REMARK   11  A    between atoms: _23  and  _24
REMARK   12  A    between atoms: _26  and  _28
REMARK   13  A    between atoms: _28  and  _29
REMARK   14  A    between atoms: _28  and  _31
REMARK   15  A    between atoms: _31  and  _32
REMARK   16  A    between atoms: _34  and  _36
REMARK   17  A    between atoms: _36  and  _37
REMARK   18  A    between atoms: _36  and  _39
REMARK   19  A    between atoms: _39  and  _40
REMARK   20  A    between atoms: _46  and  _48
REMARK   21  A    between atoms: _48  and  _49
REMARK   22  A    between atoms: _48  and  _51
REMARK   23  A    between atoms: _51  and  _52
REMARK   24  A    between atoms: _57  and  _58
REMARK   25  A    between atoms: _60  and  _62
REMARK   26  A    between atoms: _62  and  _63
REMARK   27  A    between atoms: _62  and  _65
REMARK   28  A    between atoms: _65  and  _66
REMARK   29  A    between atoms: _66  and  _67
REMARK   30  A    between atoms: _69  and  _71
REMARK   31  A    between atoms: _71  and  _72
REMARK   32  A    between atoms: _71  and  _74
REMARK   33  A    between atoms: _74  and  _75
REMARK   34  A    between atoms: _75  and  _76
REMARK   35  A    between atoms: _76  and  _77
REMARK   36  A    between atoms: _77  and  _78
REMARK   37  A    between atoms: _82  and  _84
REMARK   38  A    between atoms: _84  and  _85
REMARK   39  A    between atoms: _84  and  _87
REMARK   40  A    between atoms: _87  and  _88
REMARK   41  A    between atoms: _88  and  _89
REMARK   42  A    between atoms: _92  and  _94
REMARK   43  A    between atoms: _94  and  _95
REMARK   44  A    between atoms: _94  and  _97
REMARK   45  A    between atoms: _100  and  _102
REMARK   46  A    between atoms: _102  and  _103
REMARK   47  A    between atoms: _105  and  _107
REMARK   48  A    between atoms: _107  and  _108
REMARK   49  A    between atoms: _107  and  _110
REMARK   50  A    between atoms: _113  and  _115
REMARK   51  A    between atoms: _115  and  _116
REMARK   52  A    between atoms: _118  and  _120
REMARK   53  A    between atoms: _120  and  _121
REMARK   54  A    between atoms: _124  and  _126
REMARK   55  A    between atoms: _126  and  _127
REMARK   56  A    between atoms: _126  and  _129
REMARK   57  A    between atoms: _129  and  _130
REMARK   58  A    between atoms: _133  and  _135
REMARK   59  A    between atoms: _135  and  _136
REMARK   60  A    between atoms: _135  and  _138
REMARK   61  A    between atoms: _138  and  _139
REMARK   62  A    between atoms: _139  and  _140
REMARK   63  A    between atoms: _140  and  _141
REMARK   64  A    between atoms: _150  and  _152
REMARK   65  A    between atoms: _152  and  _153
REMARK   66  A    between atoms: _152  and  _155
REMARK   67  A    between atoms: _155  and  _156
REMARK   68  A    between atoms: _156  and  _157
REMARK   69  A    between atoms: _157  and  _158
REMARK   70  A    between atoms: _158  and  _159
REMARK   71  A    between atoms: _163  and  _165
REMARK   72  A    between atoms: _165  and  _166
REMARK   73  A    between atoms: _165  and  _168
REMARK   74  A    between atoms: _171  and  _173
REMARK   75  A    between atoms: _173  and  _174
REMARK   76  A    between atoms: _177  and  _179
REMARK   77  A    between atoms: _179  and  _180
REMARK   78  A    between atoms: _182  and  _184
REMARK   79  A    between atoms: _184  and  _185
REMARK   80  A    between atoms: _184  and  _187
REMARK   81  A    between atoms: _187  and  _188
REMARK   82  A    between atoms: _188  and  _189
REMARK   83  A    between atoms: _191  and  _193
REMARK   84  A    between atoms: _193  and  _194
REMARK   85  A    between atoms: _197  and  _199
REMARK   86  A    between atoms: _199  and  _200
REMARK   87  A    between atoms: _199  and  _202
REMARK   88  A    between atoms: _202  and  _203
REMARK   89  A    between atoms: _203  and  _204
REMARK   90  A    between atoms: _204  and  _205
REMARK   91  A    between atoms: _205  and  _206
REMARK   92  A    between atoms: _211  and  _212
REMARK   93  A    between atoms: _217  and  _219
REMARK   94  A    between atoms: _219  and  _220
REMARK   95  A    between atoms: _219  and  _222
REMARK   96  A    between atoms: _222  and  _223
REMARK   97  A    between atoms: _228  and  _230
REMARK   98  A    between atoms: _230  and  _231
REMARK   99  A    between atoms: _230  and  _233
REMARK  100  A    between atoms: _233  and  _234
REMARK  101  A    between atoms: _234  and  _235
REMARK  102  A    between atoms: _237  and  _239
REMARK  103  A    between atoms: _239  and  _240
REMARK  104  A    between atoms: _239  and  _242
REMARK  105  A    between atoms: _242  and  _243
REMARK  106  A    between atoms: _246  and  _248
REMARK  107  A    between atoms: _248  and  _249
REMARK  108  A    between atoms: _248  and  _251
REMARK  109  A    between atoms: _251  and  _252
REMARK  110  A    between atoms: _252  and  _253
REMARK  111  A    between atoms: _253  and  _254
REMARK  112  A    between atoms: _263  and  _265
REMARK  113  A    between atoms: _265  and  _266
REMARK  114  A    between atoms: _265  and  _268
REMARK  115  A    between atoms: _268  and  _269
REMARK  116  A    between atoms: _271  and  _273
REMARK  117  A    between atoms: _273  and  _274
REMARK  118  A    between atoms: _273  and  _276
REMARK  119  A    between atoms: _276  and  _277
REMARK  120  A    between atoms: _277  and  _278
REMARK  121  A    between atoms: _281  and  _283
REMARK  122  A    between atoms: _283  and  _284
REMARK  123  A    between atoms: _283  and  _286
REMARK  124  A    between atoms: _286  and  _287
REMARK  125  A    between atoms: _289  and  _291
REMARK  126  A    between atoms: _291  and  _292
REMARK  127  A    between atoms: _291  and  _294
REMARK  128  A    between atoms: _294  and  _295
REMARK  129  A    between atoms: _298  and  _300
REMARK  130  A    between atoms: _300  and  _301
REMARK  131  A    between atoms: _300  and  _303
REMARK  132  A    between atoms: _303  and  _304
REMARK  133  A    between atoms: _310  and  _312
REMARK  134  A    between atoms: _312  and  _313
REMARK  135  A    between atoms: _312  and  _315
REMARK  136  A    between atoms: _315  and  _316
REMARK  137  A    between atoms: _316  and  _317
REMARK  138  A    between atoms: _317  and  _318
REMARK  139  A    between atoms: _318  and  _319
REMARK  140  A    between atoms: _323  and  _325
REMARK  141  A    between atoms: _325  and  _326
REMARK  142  A    between atoms: _325  and  _328
REMARK  143  A    between atoms: _328  and  _329
REMARK  144  A    between atoms: _334  and  _336
REMARK  145  A    between atoms: _336  and  _337
REMARK  146  A    between atoms: _336  and  _339
REMARK  147  A    between atoms: _339  and  _340
REMARK  148  A    between atoms: _343  and  _345
REMARK  149  A    between atoms: _345  and  _346
REMARK  150  A    between atoms: _345  and  _348
REMARK  151  A    between atoms: _348  and  _349
REMARK  152  A    between atoms: _352  and  _354
REMARK  153  A    between atoms: _354  and  _355
REMARK  154  A    between atoms: _358  and  _360
REMARK  155  A    between atoms: _360  and  _361
REMARK  156  A    between atoms: _360  and  _363
REMARK  157  A    between atoms: _363  and  _364
REMARK  158  A    between atoms: _367  and  _369
REMARK  159  A    between atoms: _369  and  _370
REMARK  160  A    between atoms: _369  and  _372
REMARK  161  A    between atoms: _372  and  _373
REMARK  162  A    between atoms: _376  and  _378
REMARK  163  A    between atoms: _378  and  _379
REMARK  164  A    between atoms: _378  and  _381
REMARK  165  A    between atoms: _381  and  _382
REMARK  166  A    between atoms: _382  and  _383
REMARK  167  A    between atoms: _383  and  _384
REMARK  168  A    between atoms: _393  and  _395
REMARK  169  A    between atoms: _395  and  _396
REMARK  170  A    between atoms: _395  and  _398
REMARK  171  A    between atoms: _398  and  _399
REMARK  172  A    between atoms: _399  and  _400
REMARK  173  A    between atoms: _405  and  _407
REMARK  174  A    between atoms: _407  and  _408
REMARK  175  A    between atoms: _407  and  _410
REMARK  176  A    between atoms: _410  and  _411
REMARK  177  A    between atoms: _411  and  _412
REMARK  178  A    between atoms: _417  and  _419
REMARK  179  A    between atoms: _419  and  _420
REMARK  180  A    between atoms: _419  and  _422
REMARK  181  A    between atoms: _422  and  _423
REMARK  182  A    between atoms: _433  and  _435
REMARK  183  A    between atoms: _435  and  _436
REMARK  184  A    between atoms: _435  and  _438
REMARK  185  A    between atoms: _438  and  _439
REMARK  186  A    between atoms: _442  and  _444
REMARK  187  A    between atoms: _444  and  _445
REMARK  188  A    between atoms: _444  and  _447
REMARK  189  A    between atoms: _447  and  _448
REMARK  190  A    between atoms: _451  and  _453
REMARK  191  A    between atoms: _453  and  _454
REMARK  192  A    between atoms: _453  and  _456
REMARK  193  A    between atoms: _456  and  _457
REMARK  194  A    between atoms: _457  and  _458
REMARK  195  A    between atoms: _458  and  _459
REMARK  196  A    between atoms: _459  and  _460
REMARK  197  A    between atoms: _464  and  _466
REMARK  198  A    between atoms: _466  and  _467
REMARK  199  A    between atoms: _466  and  _469
REMARK  200  A    between atoms: _469  and  _470
REMARK  201  A    between atoms: _470  and  _471
REMARK  202  A    between atoms: _471  and  _472
REMARK  203  A    between atoms: _481  and  _483
REMARK  204  A    between atoms: _483  and  _484
REMARK  205  A    between atoms: _483  and  _486
REMARK  206  A    between atoms: _486  and  _487
REMARK  207  A    between atoms: _490  and  _492
REMARK  208  A    between atoms: _492  and  _493
REMARK  209  A    between atoms: _492  and  _495
REMARK  210  A    between atoms: _498  and  _500
REMARK  211  A    between atoms: _500  and  _501
REMARK  212  A    between atoms: _500  and  _503
REMARK  213  A    between atoms: _503  and  _504
REMARK  214  A    between atoms: _504  and  _505
REMARK  215  A    between atoms: _508  and  _510
REMARK  216  A    between atoms: _510  and  _511
REMARK  217  A    between atoms: _510  and  _513
REMARK  218  A    between atoms: _515  and  _517
REMARK  219  A    between atoms: _517  and  _518
REMARK  220  A    between atoms: _517  and  _520
REMARK  221  A    between atoms: _520  and  _521
REMARK  222  A    between atoms: _521  and  _522
REMARK  223  A    between atoms: _524  and  _526
REMARK  224  A    between atoms: _526  and  _527
REMARK  225  A    between atoms: _526  and  _529
REMARK  226  A    between atoms: _529  and  _530
REMARK  227  A    between atoms: _532  and  _534
REMARK  228  A    between atoms: _534  and  _535
REMARK  229  A    between atoms: _534  and  _537
REMARK  230  A    between atoms: _537  and  _538
REMARK  231  A    between atoms: _541  and  _543
REMARK  232  A    between atoms: _543  and  _544
REMARK  233  A    between atoms: _543  and  _546
REMARK  234  A    between atoms: _546  and  _547
REMARK  235  A    between atoms: _547  and  _548
REMARK  236  A    between atoms: _548  and  _549
REMARK  237  A    between atoms: _558  and  _560
REMARK  238  A    between atoms: _560  and  _561
REMARK  239  A    between atoms: _560  and  _563
REMARK  240  A    between atoms: _566  and  _568
REMARK  241  A    between atoms: _568  and  _569
REMARK  242  A    between atoms: _568  and  _571
REMARK  243  A    between atoms: _571  and  _572
REMARK  244  A    between atoms: _577  and  _578
REMARK                            x       y       z     vdW  Elec       q    Type
REMARK                         _______ _______ _______ _____ _____    ______ ____
ROOT
ATOM      1  O   HOH     1       9.228  15.737  -9.344  0.00  0.00    +0.000 OA
ENDROOT
TORSDOF 0
REMARK  Name = ../refined-set-2016/3hk1/3hk1_pocket.pdb
REMARK  244 active torsions:
REMARK  status: ('A' for Active; 'I' for Inactive)
REMARK    1  A    between atoms: _1  and  _3
REMARK    2  A    between atoms: _3  and  _4
REMARK    3  A    between atoms: _3  and  _6
REMARK    4  A    between atoms: _6  and  _7
REMARK    5  A    between atoms: _10  and  _12
REMARK    6  A    between atoms: _12  and  _13
REMARK    7  A    between atoms: _12  and  _15
REMARK    8  A    between atoms: _18  and  _20
REMARK    9  A    between atoms: _20  and  _21
REMARK   10  A    between atoms: _20  and  _23
REMARK   11  A    between atoms: _23  and  _24
REMARK   12  A    between atoms: _26  and  _28
REMARK   13  A    between atoms: _28  and  _29
REMARK   14  A    between atoms: _28  and  _31
REMARK   15  A    between atoms: _31  and  _32
REMARK   16  A    between atoms: _34  and  _36
REMARK   17  A    between atoms: _36  and  _37
REMARK   18  A    between atoms: _36  and  _39
REMARK   19  A    between atoms: _39  and  _40
REMARK   20  A    between atoms: _46  and  _48
REMARK   21  A    between atoms: _48  and  _49
REMARK   22  A    between atoms: _48  and  _51
REMARK   23  A    between atoms: _51  and  _52
REMARK   24  A    between atoms: _57  and  _58
REMARK   25  A    between atoms: _60  and  _62
REMARK   26  A    between atoms: _62  and  _63
REMARK   27  A    between atoms: _62  and  _65
REMARK   28  A    between atoms: _65  and  _66
REMARK   29  A    between atoms: _66  and  _67
REMARK   30  A    between atoms: _69  and  _71
REMARK   31  A    between atoms: _71  and  _72
REMARK   32  A    between atoms: _71  and  _74
REMARK   33  A    between atoms: _74  and  _75
REMARK   34  A    between atoms: _75  and  _76
REMARK   35  A    between atoms: _76  and  _77
REMARK   36  A    between atoms: _77  and  _78
REMARK   37  A    between atoms: _82  and  _84
REMARK   38  A    between atoms: _84  and  _85
REMARK   39  A    between atoms: _84  and  _87
REMARK   40  A    between atoms: _87  and  _88
REMARK   41  A    between atoms: _88  and  _89
REMARK   42  A    between atoms: _92  and  _94
REMARK   43  A    between atoms: _94  and  _95
REMARK   44  A    between atoms: _94  and  _97
REMARK   45  A    between atoms: _100  and  _102
REMARK   46  A    between atoms: _102  and  _103
REMARK   47  A    between atoms: _105  and  _107
REMARK   48  A    between atoms: _107  and  _108
REMARK   49  A    between atoms: _107  and  _110
REMARK   50  A    between atoms: _113  and  _115
REMARK   51  A    between atoms: _115  and  _116
REMARK   52  A    between atoms: _118  and  _120
REMARK   53  A    between atoms: _120  and  _121
REMARK   54  A    between atoms: _124  and  _126
REMARK   55  A    between atoms: _126  and  _127
REMARK   56  A    between atoms: _126  and  _129
REMARK   57  A    between atoms: _129  and  _130
REMARK   58  A    between atoms: _133  and  _135
REMARK   59  A    between atoms: _135  and  _136
REMARK   60  A    between atoms: _135  and  _138
REMARK   61  A    between atoms: _138  and  _139
REMARK   62  A    between atoms: _139  and  _140
REMARK   63  A    between atoms: _140  and  _141
REMARK   64  A    between atoms: _150  and  _152
REMARK   65  A    between atoms: _152  and  _153
REMARK   66  A    between atoms: _152  and  _155
REMARK   67  A    between atoms: _155  and  _156
REMARK   68  A    between atoms: _156  and  _157
REMARK   69  A    between atoms: _157  and  _158
REMARK   70  A    between atoms: _158  and  _159
REMARK   71  A    between atoms: _163  and  _165
REMARK   72  A    between atoms: _165  and  _166
REMARK   73  A    between atoms: _165  and  _168
REMARK   74  A    between atoms: _171  and  _173
REMARK   75  A    between atoms: _173  and  _174
REMARK   76  A    between atoms: _177  and  _179
REMARK   77  A    between atoms: _179  and  _180
REMARK   78  A    between atoms: _182  and  _184
REMARK   79  A    between atoms: _184  and  _185
REMARK   80  A    between atoms: _184  and  _187
REMARK   81  A    between atoms: _187  and  _188
REMARK   82  A    between atoms: _188  and  _189
REMARK   83  A    between atoms: _191  and  _193
REMARK   84  A    between atoms: _193  and  _194
REMARK   85  A    between atoms: _197  and  _199
REMARK   86  A    between atoms: _199  and  _200
REMARK   87  A    between atoms: _199  and  _202
REMARK   88  A    between atoms: _202  and  _203
REMARK   89  A    between atoms: _203  and  _204
REMARK   90  A    between atoms: _204  and  _205
REMARK   91  A    between atoms: _205  and  _206
REMARK   92  A    between atoms: _211  and  _212
REMARK   93  A    between atoms: _217  and  _219
REMARK   94  A    between atoms: _219  and  _220
REMARK   95  A    between atoms: _219  and  _222
REMARK   96  A    between atoms: _222  and  _223
REMARK   97  A    between atoms: _228  and  _230
REMARK   98  A    between atoms: _230  and  _231
REMARK   99  A    between atoms: _230  and  _233
REMARK  100  A    between atoms: _233  and  _234
REMARK  101  A    between atoms: _234  and  _235
REMARK  102  A    between atoms: _237  and  _239
REMARK  103  A    between atoms: _239  and  _240
REMARK  104  A    between atoms: _239  and  _242
REMARK  105  A    between atoms: _242  and  _243
REMARK  106  A    between atoms: _246  and  _248
REMARK  107  A    between atoms: _248  and  _249
REMARK  108  A    between atoms: _248  and  _251
REMARK  109  A    between atoms: _251  and  _252
REMARK  110  A    between atoms: _252  and  _253
REMARK  111  A    between atoms: _253  and  _254
REMARK  112  A    between atoms: _263  and  _265
REMARK  113  A    between atoms: _265  and  _266
REMARK  114  A    between atoms: _265  and  _268
REMARK  115  A    between atoms: _268  and  _269
REMARK  116  A    between atoms: _271  and  _273
REMARK  117  A    between atoms: _273  and  _274
REMARK  118  A    between atoms: _273  and  _276
REMARK  119  A    between atoms: _276  and  _277
REMARK  120  A    between atoms: _277  and  _278
REMARK  121  A    between atoms: _281  and  _283
REMARK  122  A    between atoms: _283  and  _284
REMARK  123  A    between atoms: _283  and  _286
REMARK  124  A    between atoms: _286  and  _287
REMARK  125  A    between atoms: _289  and  _291
REMARK  126  A    between atoms: _291  and  _292
REMARK  127  A    between atoms: _291  and  _294
REMARK  128  A    between atoms: _294  and  _295
REMARK  129  A    between atoms: _298  and  _300
REMARK  130  A    between atoms: _300  and  _301
REMARK  131  A    between atoms: _300  and  _303
REMARK  132  A    between atoms: _303  and  _304
REMARK  133  A    between atoms: _310  and  _312
REMARK  134  A    between atoms: _312  and  _313
REMARK  135  A    between atoms: _312  and  _315
REMARK  136  A    between atoms: _315  and  _316
REMARK  137  A    between atoms: _316  and  _317
REMARK  138  A    between atoms: _317  and  _318
REMARK  139  A    between atoms: _318  and  _319
REMARK  140  A    between atoms: _323  and  _325
REMARK  141  A    between atoms: _325  and  _326
REMARK  142  A    between atoms: _325  and  _328
REMARK  143  A    between atoms: _328  and  _329
REMARK  144  A    between atoms: _334  and  _336
REMARK  145  A    between atoms: _336  and  _337
REMARK  146  A    between atoms: _336  and  _339
REMARK  147  A    between atoms: _339  and  _340
REMARK  148  A    between atoms: _343  and  _345
REMARK  149  A    between atoms: _345  and  _346
REMARK  150  A    between atoms: _345  and  _348
REMARK  151  A    between atoms: _348  and  _349
REMARK  152  A    between atoms: _352  and  _354
REMARK  153  A    between atoms: _354  and  _355
REMARK  154  A    between atoms: _358  and  _360
REMARK  155  A    between atoms: _360  and  _361
REMARK  156  A    between atoms: _360  and  _363
REMARK  157  A    between atoms: _363  and  _364
REMARK  158  A    between atoms: _367  and  _369
REMARK  159  A    between atoms: _369  and  _370
REMARK  160  A    between atoms: _369  and  _372
REMARK  161  A    between atoms: _372  and  _373
REMARK  162  A    between atoms: _376  and  _378
REMARK  163  A    between atoms: _378  and  _379
REMARK  164  A    between atoms: _378  and  _381
REMARK  165  A    between atoms: _381  and  _382
REMARK  166  A    between atoms: _382  and  _383
REMARK  167  A    between atoms: _383  and  _384
REMARK  168  A    between atoms: _393  and  _395
REMARK  169  A    between atoms: _395  and  _396
REMARK  170  A    between atoms: _395  and  _398
REMARK  171  A    between atoms: _398  and  _399
REMARK  172  A    between atoms: _399  and  _400
REMARK  173  A    between atoms: _405  and  _407
REMARK  174  A    between atoms: _407  and  _408
REMARK  175  A    between atoms: _407  and  _410
REMARK  176  A    between atoms: _410  and  _411
REMARK  177  A    between atoms: _411  and  _412
REMARK  178  A    between atoms: _417  and  _419
REMARK  179  A    between atoms: _419  and  _420
REMARK  180  A    between atoms: _419  and  _422
REMARK  181  A    between atoms: _422  and  _423
REMARK  182  A    between atoms: _433  and  _435
REMARK  183  A    between atoms: _435  and  _436
REMARK  184  A    between atoms: _435  and  _438
REMARK  185  A    between atoms: _438  and  _439
REMARK  186  A    between atoms: _442  and  _444
REMARK  187  A    between atoms: _444  and  _445
REMARK  188  A    between atoms: _444  and  _447
REMARK  189  A    between atoms: _447  and  _448
REMARK  190  A    between atoms: _451  and  _453
REMARK  191  A    between atoms: _453  and  _454
REMARK  192  A    between atoms: _453  and  _456
REMARK  193  A    between atoms: _456  and  _457
REMARK  194  A    between atoms: _457  and  _458
REMARK  195  A    between atoms: _458  and  _459
REMARK  196  A    between atoms: _459  and  _460
REMARK  197  A    between atoms: _464  and  _466
REMARK  198  A    between atoms: _466  and  _467
REMARK  199  A    between atoms: _466  and  _469
REMARK  200  A    between atoms: _469  and  _470
REMARK  201  A    between atoms: _470  and  _471
REMARK  202  A    between atoms: _471  and  _472
REMARK  203  A    between atoms: _481  and  _483
REMARK  204  A    between atoms: _483  and  _484
REMARK  205  A    between atoms: _483  and  _486
REMARK  206  A    between atoms: _486  and  _487
REMARK  207  A    between atoms: _490  and  _492
REMARK  208  A    between atoms: _492  and  _493
REMARK  209  A    between atoms: _492  and  _495
REMARK  210  A    between atoms: _498  and  _500
REMARK  211  A    between atoms: _500  and  _501
REMARK  212  A    between atoms: _500  and  _503
REMARK  213  A    between atoms: _503  and  _504
REMARK  214  A    between atoms: _504  and  _505
REMARK  215  A    between atoms: _508  and  _510
REMARK  216  A    between atoms: _510  and  _511
REMARK  217  A    between atoms: _510  and  _513
REMARK  218  A    between atoms: _515  and  _517
REMARK  219  A    between atoms: _517  and  _518
REMARK  220  A    between atoms: _517  and  _520
REMARK  221  A    between atoms: _520  and  _521
REMARK  222  A    between atoms: _521  and  _522
REMARK  223  A    between atoms: _524  and  _526
REMARK  224  A    between atoms: _526  and  _527
REMARK  225  A    between atoms: _526  and  _529
REMARK  226  A    between atoms: _529  and  _530
REMARK  227  A    between atoms: _532  and  _534
REMARK  228  A    between atoms: _534  and  _535
REMARK  229  A    between atoms: _534  and  _537
REMARK  230  A    between atoms: _537  and  _538
REMARK  231  A    between atoms: _541  and  _543
REMARK  232  A    between atoms: _543  and  _544
REMARK  233  A    between atoms: _543  and  _546
REMARK  234  A    between atoms: _546  and  _547
REMARK  235  A    between atoms: _547  and  _548
REMARK  236  A    between atoms: _548  and  _549
REMARK  237  A    between atoms: _558  and  _560
REMARK  238  A    between atoms: _560  and  _561
REMARK  239  A    between atoms: _560  and  _563
REMARK  240  A    between atoms: _566  and  _568
REMARK  241  A    between atoms: _568  and  _569
REMARK  242  A    between atoms: _568  and  _571
REMARK  243  A    between atoms: _571  and  _572
REMARK  244  A    between atoms: _577  and  _578
REMARK                            x       y       z     vdW  Elec       q    Type
REMARK                         _______ _______ _______ _____ _____    ______ ____
ROOT
ATOM      1  O   HOH     1       7.314  21.167  -3.982  0.00  0.00    +0.000 OA
ENDROOT
TORSDOF 0
REMARK  Name = ../refined-set-2016/3hk1/3hk1_pocket.pdb
REMARK  244 active torsions:
REMARK  status: ('A' for Active; 'I' for Inactive)
REMARK    1  A    between atoms: _1  and  _3
REMARK    2  A    between atoms: _3  and  _4
REMARK    3  A    between atoms: _3  and  _6
REMARK    4  A    between atoms: _6  and  _7
REMARK    5  A    between atoms: _10  and  _12
REMARK    6  A    between atoms: _12  and  _13
REMARK    7  A    between atoms: _12  and  _15
REMARK    8  A    between atoms: _18  and  _20
REMARK    9  A    between atoms: _20  and  _21
REMARK   10  A    between atoms: _20  and  _23
REMARK   11  A    between atoms: _23  and  _24
REMARK   12  A    between atoms: _26  and  _28
REMARK   13  A    between atoms: _28  and  _29
REMARK   14  A    between atoms: _28  and  _31
REMARK   15  A    between atoms: _31  and  _32
REMARK   16  A    between atoms: _34  and  _36
REMARK   17  A    between atoms: _36  and  _37
REMARK   18  A    between atoms: _36  and  _39
REMARK   19  A    between atoms: _39  and  _40
REMARK   20  A    between atoms: _46  and  _48
REMARK   21  A    between atoms: _48  and  _49
REMARK   22  A    between atoms: _48  and  _51
REMARK   23  A    between atoms: _51  and  _52
REMARK   24  A    between atoms: _57  and  _58
REMARK   25  A    between atoms: _60  and  _62
REMARK   26  A    between atoms: _62  and  _63
REMARK   27  A    between atoms: _62  and  _65
REMARK   28  A    between atoms: _65  and  _66
REMARK   29  A    between atoms: _66  and  _67
REMARK   30  A    between atoms: _69  and  _71
REMARK   31  A    between atoms: _71  and  _72
REMARK   32  A    between atoms: _71  and  _74
REMARK   33  A    between atoms: _74  and  _75
REMARK   34  A    between atoms: _75  and  _76
REMARK   35  A    between atoms: _76  and  _77
REMARK   36  A    between atoms: _77  and  _78
REMARK   37  A    between atoms: _82  and  _84
REMARK   38  A    between atoms: _84  and  _85
REMARK   39  A    between atoms: _84  and  _87
REMARK   40  A    between atoms: _87  and  _88
REMARK   41  A    between atoms: _88  and  _89
REMARK   42  A    between atoms: _92  and  _94
REMARK   43  A    between atoms: _94  and  _95
REMARK   44  A    between atoms: _94  and  _97
REMARK   45  A    between atoms: _100  and  _102
REMARK   46  A    between atoms: _102  and  _103
REMARK   47  A    between atoms: _105  and  _107
REMARK   48  A    between atoms: _107  and  _108
REMARK   49  A    between atoms: _107  and  _110
REMARK   50  A    between atoms: _113  and  _115
REMARK   51  A    between atoms: _115  and  _116
REMARK   52  A    between atoms: _118  and  _120
REMARK   53  A    between atoms: _120  and  _121
REMARK   54  A    between atoms: _124  and  _126
REMARK   55  A    between atoms: _126  and  _127
REMARK   56  A    between atoms: _126  and  _129
REMARK   57  A    between atoms: _129  and  _130
REMARK   58  A    between atoms: _133  and  _135
REMARK   59  A    between atoms: _135  and  _136
REMARK   60  A    between atoms: _135  and  _138
REMARK   61  A    between atoms: _138  and  _139
REMARK   62  A    between atoms: _139  and  _140
REMARK   63  A    between atoms: _140  and  _141
REMARK   64  A    between atoms: _150  and  _152
REMARK   65  A    between atoms: _152  and  _153
REMARK   66  A    between atoms: _152  and  _155
REMARK   67  A    between atoms: _155  and  _156
REMARK   68  A    between atoms: _156  and  _157
REMARK   69  A    between atoms: _157  and  _158
REMARK   70  A    between atoms: _158  and  _159
REMARK   71  A    between atoms: _163  and  _165
REMARK   72  A    between atoms: _165  and  _166
REMARK   73  A    between atoms: _165  and  _168
REMARK   74  A    between atoms: _171  and  _173
REMARK   75  A    between atoms: _173  and  _174
REMARK   76  A    between atoms: _177  and  _179
REMARK   77  A    between atoms: _179  and  _180
REMARK   78  A    between atoms: _182  and  _184
REMARK   79  A    between atoms: _184  and  _185
REMARK   80  A    between atoms: _184  and  _187
REMARK   81  A    between atoms: _187  and  _188
REMARK   82  A    between atoms: _188  and  _189
REMARK   83  A    between atoms: _191  and  _193
REMARK   84  A    between atoms: _193  and  _194
REMARK   85  A    between atoms: _197  and  _199
REMARK   86  A    between atoms: _199  and  _200
REMARK   87  A    between atoms: _199  and  _202
REMARK   88  A    between atoms: _202  and  _203
REMARK   89  A    between atoms: _203  and  _204
REMARK   90  A    between atoms: _204  and  _205
REMARK   91  A    between atoms: _205  and  _206
REMARK   92  A    between atoms: _211  and  _212
REMARK   93  A    between atoms: _217  and  _219
REMARK   94  A    between atoms: _219  and  _220
REMARK   95  A    between atoms: _219  and  _222
REMARK   96  A    between atoms: _222  and  _223
REMARK   97  A    between atoms: _228  and  _230
REMARK   98  A    between atoms: _230  and  _231
REMARK   99  A    between atoms: _230  and  _233
REMARK  100  A    between atoms: _233  and  _234
REMARK  101  A    between atoms: _234  and  _235
REMARK  102  A    between atoms: _237  and  _239
REMARK  103  A    between atoms: _239  and  _240
REMARK  104  A    between atoms: _239  and  _242
REMARK  105  A    between atoms: _242  and  _243
REMARK  106  A    between atoms: _246  and  _248
REMARK  107  A    between atoms: _248  and  _249
REMARK  108  A    between atoms: _248  and  _251
REMARK  109  A    between atoms: _251  and  _252
REMARK  110  A    between atoms: _252  and  _253
REMARK  111  A    between atoms: _253  and  _254
REMARK  112  A    between atoms: _263  and  _265
REMARK  113  A    between atoms: _265  and  _266
REMARK  114  A    between atoms: _265  and  _268
REMARK  115  A    between atoms: _268  and  _269
REMARK  116  A    between atoms: _271  and  _273
REMARK  117  A    between atoms: _273  and  _274
REMARK  118  A    between atoms: _273  and  _276
REMARK  119  A    between atoms: _276  and  _277
REMARK  120  A    between atoms: _277  and  _278
REMARK  121  A    between atoms: _281  and  _283
REMARK  122  A    between atoms: _283  and  _284
REMARK  123  A    between atoms: _283  and  _286
REMARK  124  A    between atoms: _286  and  _287
REMARK  125  A    between atoms: _289  and  _291
REMARK  126  A    between atoms: _291  and  _292
REMARK  127  A    between atoms: _291  and  _294
REMARK  128  A    between atoms: _294  and  _295
REMARK  129  A    between atoms: _298  and  _300
REMARK  130  A    between atoms: _300  and  _301
REMARK  131  A    between atoms: _300  and  _303
REMARK  132  A    between atoms: _303  and  _304
REMARK  133  A    between atoms: _310  and  _312
REMARK  134  A    between atoms: _312  and  _313
REMARK  135  A    between atoms: _312  and  _315
REMARK  136  A    between atoms: _315  and  _316
REMARK  137  A    between atoms: _316  and  _317
REMARK  138  A    between atoms: _317  and  _318
REMARK  139  A    between atoms: _318  and  _319
REMARK  140  A    between atoms: _323  and  _325
REMARK  141  A    between atoms: _325  and  _326
REMARK  142  A    between atoms: _325  and  _328
REMARK  143  A    between atoms: _328  and  _329
REMARK  144  A    between atoms: _334  and  _336
REMARK  145  A    between atoms: _336  and  _337
REMARK  146  A    between atoms: _336  and  _339
REMARK  147  A    between atoms: _339  and  _340
REMARK  148  A    between atoms: _343  and  _345
REMARK  149  A    between atoms: _345  and  _346
REMARK  150  A    between atoms: _345  and  _348
REMARK  151  A    between atoms: _348  and  _349
REMARK  152  A    between atoms: _352  and  _354
REMARK  153  A    between atoms: _354  and  _355
REMARK  154  A    between atoms: _358  and  _360
REMARK  155  A    between atoms: _360  and  _361
REMARK  156  A    between atoms: _360  and  _363
REMARK  157  A    between atoms: _363  and  _364
REMARK  158  A    between atoms: _367  and  _369
REMARK  159  A    between atoms: _369  and  _370
REMARK  160  A    between atoms: _369  and  _372
REMARK  161  A    between atoms: _372  and  _373
REMARK  162  A    between atoms: _376  and  _378
REMARK  163  A    between atoms: _378  and  _379
REMARK  164  A    between atoms: _378  and  _381
REMARK  165  A    between atoms: _381  and  _382
REMARK  166  A    between atoms: _382  and  _383
REMARK  167  A    between atoms: _383  and  _384
REMARK  168  A    between atoms: _393  and  _395
REMARK  169  A    between atoms: _395  and  _396
REMARK  170  A    between atoms: _395  and  _398
REMARK  171  A    between atoms: _398  and  _399
REMARK  172  A    between atoms: _399  and  _400
REMARK  173  A    between atoms: _405  and  _407
REMARK  174  A    between atoms: _407  and  _408
REMARK  175  A    between atoms: _407  and  _410
REMARK  176  A    between atoms: _410  and  _411
REMARK  177  A    between atoms: _411  and  _412
REMARK  178  A    between atoms: _417  and  _419
REMARK  179  A    between atoms: _419  and  _420
REMARK  180  A    between atoms: _419  and  _422
REMARK  181  A    between atoms: _422  and  _423
REMARK  182  A    between atoms: _433  and  _435
REMARK  183  A    between atoms: _435  and  _436
REMARK  184  A    between atoms: _435  and  _438
REMARK  185  A    between atoms: _438  and  _439
REMARK  186  A    between atoms: _442  and  _444
REMARK  187  A    between atoms: _444  and  _445
REMARK  188  A    between atoms: _444  and  _447
REMARK  189  A    between atoms: _447  and  _448
REMARK  190  A    between atoms: _451  and  _453
REMARK  191  A    between atoms: _453  and  _454
REMARK  192  A    between atoms: _453  and  _456
REMARK  193  A    between atoms: _456  and  _457
REMARK  194  A    between atoms: _457  and  _458
REMARK  195  A    between atoms: _458  and  _459
REMARK  196  A    between atoms: _459  and  _460
REMARK  197  A    between atoms: _464  and  _466
REMARK  198  A    between atoms: _466  and  _467
REMARK  199  A    between atoms: _466  and  _469
REMARK  200  A    between atoms: _469  and  _470
REMARK  201  A    between atoms: _470  and  _471
REMARK  202  A    between atoms: _471  and  _472
REMARK  203  A    between atoms: _481  and  _483
REMARK  204  A    between atoms: _483  and  _484
REMARK  205  A    between atoms: _483  and  _486
REMARK  206  A    between atoms: _486  and  _487
REMARK  207  A    between atoms: _490  and  _492
REMARK  208  A    between atoms: _492  and  _493
REMARK  209  A    between atoms: _492  and  _495
REMARK  210  A    between atoms: _498  and  _500
REMARK  211  A    between atoms: _500  and  _501
REMARK  212  A    between atoms: _500  and  _503
REMARK  213  A    between atoms: _503  and  _504
REMARK  214  A    between atoms: _504  and  _505
REMARK  215  A    between atoms: _508  and  _510
REMARK  216  A    between atoms: _510  and  _511
REMARK  217  A    between atoms: _510  and  _513
REMARK  218  A    between atoms: _515  and  _517
REMARK  219  A    between atoms: _517  and  _518
REMARK  220  A    between atoms: _517  and  _520
REMARK  221  A    between atoms: _520  and  _521
REMARK  222  A    between atoms: _521  and  _522
REMARK  223  A    between atoms: _524  and  _526
REMARK  224  A    between atoms: _526  and  _527
REMARK  225  A    between atoms: _526  and  _529
REMARK  226  A    between atoms: _529  and  _530
REMARK  227  A    between atoms: _532  and  _534
REMARK  228  A    between atoms: _534  and  _535
REMARK  229  A    between atoms: _534  and  _537
REMARK  230  A    between atoms: _537  and  _538
REMARK  231  A    between atoms: _541  and  _543
REMARK  232  A    between atoms: _543  and  _544
REMARK  233  A    between atoms: _543  and  _546
REMARK  234  A    between atoms: _546  and  _547
REMARK  235  A    between atoms: _547  and  _548
REMARK  236  A    between atoms: _548  and  _549
REMARK  237  A    between atoms: _558  and  _560
REMARK  238  A    between atoms: _560  and  _561
REMARK  239  A    between atoms: _560  and  _563
REMARK  240  A    between atoms: _566  and  _568
REMARK  241  A    between atoms: _568  and  _569
REMARK  242  A    between atoms: _568  and  _571
REMARK  243  A    between atoms: _571  and  _572
REMARK  244  A    between atoms: _577  and  _578
REMARK                            x       y       z     vdW  Elec       q    Type
REMARK                         _______ _______ _______ _____ _____    ______ ____
ROOT
ATOM      1  O   HOH     1       8.632  17.394  -5.557  0.00  0.00    +0.000 OA
ENDROOT
TORSDOF 0
REMARK  Name = ../refined-set-2016/3hk1/3hk1_pocket.pdb
REMARK  244 active torsions:
REMARK  status: ('A' for Active; 'I' for Inactive)
REMARK    1  A    between atoms: _1  and  _3
REMARK    2  A    between atoms: _3  and  _4
REMARK    3  A    between atoms: _3  and  _6
REMARK    4  A    between atoms: _6  and  _7
REMARK    5  A    between atoms: _10  and  _12
REMARK    6  A    between atoms: _12  and  _13
REMARK    7  A    between atoms: _12  and  _15
REMARK    8  A    between atoms: _18  and  _20
REMARK    9  A    between atoms: _20  and  _21
REMARK   10  A    between atoms: _20  and  _23
REMARK   11  A    between atoms: _23  and  _24
REMARK   12  A    between atoms: _26  and  _28
REMARK   13  A    between atoms: _28  and  _29
REMARK   14  A    between atoms: _28  and  _31
REMARK   15  A    between atoms: _31  and  _32
REMARK   16  A    between atoms: _34  and  _36
REMARK   17  A    between atoms: _36  and  _37
REMARK   18  A    between atoms: _36  and  _39
REMARK   19  A    between atoms: _39  and  _40
REMARK   20  A    between atoms: _46  and  _48
REMARK   21  A    between atoms: _48  and  _49
REMARK   22  A    between atoms: _48  and  _51
REMARK   23  A    between atoms: _51  and  _52
REMARK   24  A    between atoms: _57  and  _58
REMARK   25  A    between atoms: _60  and  _62
REMARK   26  A    between atoms: _62  and  _63
REMARK   27  A    between atoms: _62  and  _65
REMARK   28  A    between atoms: _65  and  _66
REMARK   29  A    between atoms: _66  and  _67
REMARK   30  A    between atoms: _69  and  _71
REMARK   31  A    between atoms: _71  and  _72
REMARK   32  A    between atoms: _71  and  _74
REMARK   33  A    between atoms: _74  and  _75
REMARK   34  A    between atoms: _75  and  _76
REMARK   35  A    between atoms: _76  and  _77
REMARK   36  A    between atoms: _77  and  _78
REMARK   37  A    between atoms: _82  and  _84
REMARK   38  A    between atoms: _84  and  _85
REMARK   39  A    between atoms: _84  and  _87
REMARK   40  A    between atoms: _87  and  _88
REMARK   41  A    between atoms: _88  and  _89
REMARK   42  A    between atoms: _92  and  _94
REMARK   43  A    between atoms: _94  and  _95
REMARK   44  A    between atoms: _94  and  _97
REMARK   45  A    between atoms: _100  and  _102
REMARK   46  A    between atoms: _102  and  _103
REMARK   47  A    between atoms: _105  and  _107
REMARK   48  A    between atoms: _107  and  _108
REMARK   49  A    between atoms: _107  and  _110
REMARK   50  A    between atoms: _113  and  _115
REMARK   51  A    between atoms: _115  and  _116
REMARK   52  A    between atoms: _118  and  _120
REMARK   53  A    between atoms: _120  and  _121
REMARK   54  A    between atoms: _124  and  _126
REMARK   55  A    between atoms: _126  and  _127
REMARK   56  A    between atoms: _126  and  _129
REMARK   57  A    between atoms: _129  and  _130
REMARK   58  A    between atoms: _133  and  _135
REMARK   59  A    between atoms: _135  and  _136
REMARK   60  A    between atoms: _135  and  _138
REMARK   61  A    between atoms: _138  and  _139
REMARK   62  A    between atoms: _139  and  _140
REMARK   63  A    between atoms: _140  and  _141
REMARK   64  A    between atoms: _150  and  _152
REMARK   65  A    between atoms: _152  and  _153
REMARK   66  A    between atoms: _152  and  _155
REMARK   67  A    between atoms: _155  and  _156
REMARK   68  A    between atoms: _156  and  _157
REMARK   69  A    between atoms: _157  and  _158
REMARK   70  A    between atoms: _158  and  _159
REMARK   71  A    between atoms: _163  and  _165
REMARK   72  A    between atoms: _165  and  _166
REMARK   73  A    between atoms: _165  and  _168
REMARK   74  A    between atoms: _171  and  _173
REMARK   75  A    between atoms: _173  and  _174
REMARK   76  A    between atoms: _177  and  _179
REMARK   77  A    between atoms: _179  and  _180
REMARK   78  A    between atoms: _182  and  _184
REMARK   79  A    between atoms: _184  and  _185
REMARK   80  A    between atoms: _184  and  _187
REMARK   81  A    between atoms: _187  and  _188
REMARK   82  A    between atoms: _188  and  _189
REMARK   83  A    between atoms: _191  and  _193
REMARK   84  A    between atoms: _193  and  _194
REMARK   85  A    between atoms: _197  and  _199
REMARK   86  A    between atoms: _199  and  _200
REMARK   87  A    between atoms: _199  and  _202
REMARK   88  A    between atoms: _202  and  _203
REMARK   89  A    between atoms: _203  and  _204
REMARK   90  A    between atoms: _204  and  _205
REMARK   91  A    between atoms: _205  and  _206
REMARK   92  A    between atoms: _211  and  _212
REMARK   93  A    between atoms: _217  and  _219
REMARK   94  A    between atoms: _219  and  _220
REMARK   95  A    between atoms: _219  and  _222
REMARK   96  A    between atoms: _222  and  _223
REMARK   97  A    between atoms: _228  and  _230
REMARK   98  A    between atoms: _230  and  _231
REMARK   99  A    between atoms: _230  and  _233
REMARK  100  A    between atoms: _233  and  _234
REMARK  101  A    between atoms: _234  and  _235
REMARK  102  A    between atoms: _237  and  _239
REMARK  103  A    between atoms: _239  and  _240
REMARK  104  A    between atoms: _239  and  _242
REMARK  105  A    between atoms: _242  and  _243
REMARK  106  A    between atoms: _246  and  _248
REMARK  107  A    between atoms: _248  and  _249
REMARK  108  A    between atoms: _248  and  _251
REMARK  109  A    between atoms: _251  and  _252
REMARK  110  A    between atoms: _252  and  _253
REMARK  111  A    between atoms: _253  and  _254
REMARK  112  A    between atoms: _263  and  _265
REMARK  113  A    between atoms: _265  and  _266
REMARK  114  A    between atoms: _265  and  _268
REMARK  115  A    between atoms: _268  and  _269
REMARK  116  A    between atoms: _271  and  _273
REMARK  117  A    between atoms: _273  and  _274
REMARK  118  A    between atoms: _273  and  _276
REMARK  119  A    between atoms: _276  and  _277
REMARK  120  A    between atoms: _277  and  _278
REMARK  121  A    between atoms: _281  and  _283
REMARK  122  A    between atoms: _283  and  _284
REMARK  123  A    between atoms: _283  and  _286
REMARK  124  A    between atoms: _286  and  _287
REMARK  125  A    between atoms: _289  and  _291
REMARK  126  A    between atoms: _291  and  _292
REMARK  127  A    between atoms: _291  and  _294
REMARK  128  A    between atoms: _294  and  _295
REMARK  129  A    between atoms: _298  and  _300
REMARK  130  A    between atoms: _300  and  _301
REMARK  131  A    between atoms: _300  and  _303
REMARK  132  A    between atoms: _303  and  _304
REMARK  133  A    between atoms: _310  and  _312
REMARK  134  A    between atoms: _312  and  _313
REMARK  135  A    between atoms: _312  and  _315
REMARK  136  A    between atoms: _315  and  _316
REMARK  137  A    between atoms: _316  and  _317
REMARK  138  A    between atoms: _317  and  _318
REMARK  139  A    between atoms: _318  and  _319
REMARK  140  A    between atoms: _323  and  _325
REMARK  141  A    between atoms: _325  and  _326
REMARK  142  A    between atoms: _325  and  _328
REMARK  143  A    between atoms: _328  and  _329
REMARK  144  A    between atoms: _334  and  _336
REMARK  145  A    between atoms: _336  and  _337
REMARK  146  A    between atoms: _336  and  _339
REMARK  147  A    between atoms: _339  and  _340
REMARK  148  A    between atoms: _343  and  _345
REMARK  149  A    between atoms: _345  and  _346
REMARK  150  A    between atoms: _345  and  _348
REMARK  151  A    between atoms: _348  and  _349
REMARK  152  A    between atoms: _352  and  _354
REMARK  153  A    between atoms: _354  and  _355
REMARK  154  A    between atoms: _358  and  _360
REMARK  155  A    between atoms: _360  and  _361
REMARK  156  A    between atoms: _360  and  _363
REMARK  157  A    between atoms: _363  and  _364
REMARK  158  A    between atoms: _367  and  _369
REMARK  159  A    between atoms: _369  and  _370
REMARK  160  A    between atoms: _369  and  _372
REMARK  161  A    between atoms: _372  and  _373
REMARK  162  A    between atoms: _376  and  _378
REMARK  163  A    between atoms: _378  and  _379
REMARK  164  A    between atoms: _378  and  _381
REMARK  165  A    between atoms: _381  and  _382
REMARK  166  A    between atoms: _382  and  _383
REMARK  167  A    between atoms: _383  and  _384
REMARK  168  A    between atoms: _393  and  _395
REMARK  169  A    between atoms: _395  and  _396
REMARK  170  A    between atoms: _395  and  _398
REMARK  171  A    between atoms: _398  and  _399
REMARK  172  A    between atoms: _399  and  _400
REMARK  173  A    between atoms: _405  and  _407
REMARK  174  A    between atoms: _407  and  _408
REMARK  175  A    between atoms: _407  and  _410
REMARK  176  A    between atoms: _410  and  _411
REMARK  177  A    between atoms: _411  and  _412
REMARK  178  A    between atoms: _417  and  _419
REMARK  179  A    between atoms: _419  and  _420
REMARK  180  A    between atoms: _419  and  _422
REMARK  181  A    between atoms: _422  and  _423
REMARK  182  A    between atoms: _433  and  _435
REMARK  183  A    between atoms: _435  and  _436
REMARK  184  A    between atoms: _435  and  _438
REMARK  185  A    between atoms: _438  and  _439
REMARK  186  A    between atoms: _442  and  _444
REMARK  187  A    between atoms: _444  and  _445
REMARK  188  A    between atoms: _444  and  _447
REMARK  189  A    between atoms: _447  and  _448
REMARK  190  A    between atoms: _451  and  _453
REMARK  191  A    between atoms: _453  and  _454
REMARK  192  A    between atoms: _453  and  _456
REMARK  193  A    between atoms: _456  and  _457
REMARK  194  A    between atoms: _457  and  _458
REMARK  195  A    between atoms: _458  and  _459
REMARK  196  A    between atoms: _459  and  _460
REMARK  197  A    between atoms: _464  and  _466
REMARK  198  A    between atoms: _466  and  _467
REMARK  199  A    between atoms: _466  and  _469
REMARK  200  A    between atoms: _469  and  _470
REMARK  201  A    between atoms: _470  and  _471
REMARK  202  A    between atoms: _471  and  _472
REMARK  203  A    between atoms: _481  and  _483
REMARK  204  A    between atoms: _483  and  _484
REMARK  205  A    between atoms: _483  and  _486
REMARK  206  A    between atoms: _486  and  _487
REMARK  207  A    between atoms: _490  and  _492
REMARK  208  A    between atoms: _492  and  _493
REMARK  209  A    between atoms: _492  and  _495
REMARK  210  A    between atoms: _498  and  _500
REMARK  211  A    between atoms: _500  and  _501
REMARK  212  A    between atoms: _500  and  _503
REMARK  213  A    between atoms: _503  and  _504
REMARK  214  A    between atoms: _504  and  _505
REMARK  215  A    between atoms: _508  and  _510
REMARK  216  A    between atoms: _510  and  _511
REMARK  217  A    between atoms: _510  and  _513
REMARK  218  A    between atoms: _515  and  _517
REMARK  219  A    between atoms: _517  and  _518
REMARK  220  A    between atoms: _517  and  _520
REMARK  221  A    between atoms: _520  and  _521
REMARK  222  A    between atoms: _521  and  _522
REMARK  223  A    between atoms: _524  and  _526
REMARK  224  A    between atoms: _526  and  _527
REMARK  225  A    between atoms: _526  and  _529
REMARK  226  A    between atoms: _529  and  _530
REMARK  227  A    between atoms: _532  and  _534
REMARK  228  A    between atoms: _534  and  _535
REMARK  229  A    between atoms: _534  and  _537
REMARK  230  A    between atoms: _537  and  _538
REMARK  231  A    between atoms: _541  and  _543
REMARK  232  A    between atoms: _543  and  _544
REMARK  233  A    between atoms: _543  and  _546
REMARK  234  A    between atoms: _546  and  _547
REMARK  235  A    between atoms: _547  and  _548
REMARK  236  A    between atoms: _548  and  _549
REMARK  237  A    between atoms: _558  and  _560
REMARK  238  A    between atoms: _560  and  _561
REMARK  239  A    between atoms: _560  and  _563
REMARK  240  A    between atoms: _566  and  _568
REMARK  241  A    between atoms: _568  and  _569
REMARK  242  A    between atoms: _568  and  _571
REMARK  243  A    between atoms: _571  and  _572
REMARK  244  A    between atoms: _577  and  _578
REMARK                            x       y       z     vdW  Elec       q    Type
REMARK                         _______ _______ _______ _____ _____    ______ ____
ROOT
ATOM      1  O   HOH     1       5.859  16.958  -4.582  0.00  0.00    +0.000 OA
ENDROOT
TORSDOF 0
REMARK  Name = ../refined-set-2016/3hk1/3hk1_pocket.pdb
REMARK  244 active torsions:
REMARK  status: ('A' for Active; 'I' for Inactive)
REMARK    1  A    between atoms: _1  and  _3
REMARK    2  A    between atoms: _3  and  _4
REMARK    3  A    between atoms: _3  and  _6
REMARK    4  A    between atoms: _6  and  _7
REMARK    5  A    between atoms: _10  and  _12
REMARK    6  A    between atoms: _12  and  _13
REMARK    7  A    between atoms: _12  and  _15
REMARK    8  A    between atoms: _18  and  _20
REMARK    9  A    between atoms: _20  and  _21
REMARK   10  A    between atoms: _20  and  _23
REMARK   11  A    between atoms: _23  and  _24
REMARK   12  A    between atoms: _26  and  _28
REMARK   13  A    between atoms: _28  and  _29
REMARK   14  A    between atoms: _28  and  _31
REMARK   15  A    between atoms: _31  and  _32
REMARK   16  A    between atoms: _34  and  _36
REMARK   17  A    between atoms: _36  and  _37
REMARK   18  A    between atoms: _36  and  _39
REMARK   19  A    between atoms: _39  and  _40
REMARK   20  A    between atoms: _46  and  _48
REMARK   21  A    between atoms: _48  and  _49
REMARK   22  A    between atoms: _48  and  _51
REMARK   23  A    between atoms: _51  and  _52
REMARK   24  A    between atoms: _57  and  _58
REMARK   25  A    between atoms: _60  and  _62
REMARK   26  A    between atoms: _62  and  _63
REMARK   27  A    between atoms: _62  and  _65
REMARK   28  A    between atoms: _65  and  _66
REMARK   29  A    between atoms: _66  and  _67
REMARK   30  A    between atoms: _69  and  _71
REMARK   31  A    between atoms: _71  and  _72
REMARK   32  A    between atoms: _71  and  _74
REMARK   33  A    between atoms: _74  and  _75
REMARK   34  A    between atoms: _75  and  _76
REMARK   35  A    between atoms: _76  and  _77
REMARK   36  A    between atoms: _77  and  _78
REMARK   37  A    between atoms: _82  and  _84
REMARK   38  A    between atoms: _84  and  _85
REMARK   39  A    between atoms: _84  and  _87
REMARK   40  A    between atoms: _87  and  _88
REMARK   41  A    between atoms: _88  and  _89
REMARK   42  A    between atoms: _92  and  _94
REMARK   43  A    between atoms: _94  and  _95
REMARK   44  A    between atoms: _94  and  _97
REMARK   45  A    between atoms: _100  and  _102
REMARK   46  A    between atoms: _102  and  _103
REMARK   47  A    between atoms: _105  and  _107
REMARK   48  A    between atoms: _107  and  _108
REMARK   49  A    between atoms: _107  and  _110
REMARK   50  A    between atoms: _113  and  _115
REMARK   51  A    between atoms: _115  and  _116
REMARK   52  A    between atoms: _118  and  _120
REMARK   53  A    between atoms: _120  and  _121
REMARK   54  A    between atoms: _124  and  _126
REMARK   55  A    between atoms: _126  and  _127
REMARK   56  A    between atoms: _126  and  _129
REMARK   57  A    between atoms: _129  and  _130
REMARK   58  A    between atoms: _133  and  _135
REMARK   59  A    between atoms: _135  and  _136
REMARK   60  A    between atoms: _135  and  _138
REMARK   61  A    between atoms: _138  and  _139
REMARK   62  A    between atoms: _139  and  _140
REMARK   63  A    between atoms: _140  and  _141
REMARK   64  A    between atoms: _150  and  _152
REMARK   65  A    between atoms: _152  and  _153
REMARK   66  A    between atoms: _152  and  _155
REMARK   67  A    between atoms: _155  and  _156
REMARK   68  A    between atoms: _156  and  _157
REMARK   69  A    between atoms: _157  and  _158
REMARK   70  A    between atoms: _158  and  _159
REMARK   71  A    between atoms: _163  and  _165
REMARK   72  A    between atoms: _165  and  _166
REMARK   73  A    between atoms: _165  and  _168
REMARK   74  A    between atoms: _171  and  _173
REMARK   75  A    between atoms: _173  and  _174
REMARK   76  A    between atoms: _177  and  _179
REMARK   77  A    between atoms: _179  and  _180
REMARK   78  A    between atoms: _182  and  _184
REMARK   79  A    between atoms: _184  and  _185
REMARK   80  A    between atoms: _184  and  _187
REMARK   81  A    between atoms: _187  and  _188
REMARK   82  A    between atoms: _188  and  _189
REMARK   83  A    between atoms: _191  and  _193
REMARK   84  A    between atoms: _193  and  _194
REMARK   85  A    between atoms: _197  and  _199
REMARK   86  A    between atoms: _199  and  _200
REMARK   87  A    between atoms: _199  and  _202
REMARK   88  A    between atoms: _202  and  _203
REMARK   89  A    between atoms: _203  and  _204
REMARK   90  A    between atoms: _204  and  _205
REMARK   91  A    between atoms: _205  and  _206
REMARK   92  A    between atoms: _211  and  _212
REMARK   93  A    between atoms: _217  and  _219
REMARK   94  A    between atoms: _219  and  _220
REMARK   95  A    between atoms: _219  and  _222
REMARK   96  A    between atoms: _222  and  _223
REMARK   97  A    between atoms: _228  and  _230
REMARK   98  A    between atoms: _230  and  _231
REMARK   99  A    between atoms: _230  and  _233
REMARK  100  A    between atoms: _233  and  _234
REMARK  101  A    between atoms: _234  and  _235
REMARK  102  A    between atoms: _237  and  _239
REMARK  103  A    between atoms: _239  and  _240
REMARK  104  A    between atoms: _239  and  _242
REMARK  105  A    between atoms: _242  and  _243
REMARK  106  A    between atoms: _246  and  _248
REMARK  107  A    between atoms: _248  and  _249
REMARK  108  A    between atoms: _248  and  _251
REMARK  109  A    between atoms: _251  and  _252
REMARK  110  A    between atoms: _252  and  _253
REMARK  111  A    between atoms: _253  and  _254
REMARK  112  A    between atoms: _263  and  _265
REMARK  113  A    between atoms: _265  and  _266
REMARK  114  A    between atoms: _265  and  _268
REMARK  115  A    between atoms: _268  and  _269
REMARK  116  A    between atoms: _271  and  _273
REMARK  117  A    between atoms: _273  and  _274
REMARK  118  A    between atoms: _273  and  _276
REMARK  119  A    between atoms: _276  and  _277
REMARK  120  A    between atoms: _277  and  _278
REMARK  121  A    between atoms: _281  and  _283
REMARK  122  A    between atoms: _283  and  _284
REMARK  123  A    between atoms: _283  and  _286
REMARK  124  A    between atoms: _286  and  _287
REMARK  125  A    between atoms: _289  and  _291
REMARK  126  A    between atoms: _291  and  _292
REMARK  127  A    between atoms: _291  and  _294
REMARK  128  A    between atoms: _294  and  _295
REMARK  129  A    between atoms: _298  and  _300
REMARK  130  A    between atoms: _300  and  _301
REMARK  131  A    between atoms: _300  and  _303
REMARK  132  A    between atoms: _303  and  _304
REMARK  133  A    between atoms: _310  and  _312
REMARK  134  A    between atoms: _312  and  _313
REMARK  135  A    between atoms: _312  and  _315
REMARK  136  A    between atoms: _315  and  _316
REMARK  137  A    between atoms: _316  and  _317
REMARK  138  A    between atoms: _317  and  _318
REMARK  139  A    between atoms: _318  and  _319
REMARK  140  A    between atoms: _323  and  _325
REMARK  141  A    between atoms: _325  and  _326
REMARK  142  A    between atoms: _325  and  _328
REMARK  143  A    between atoms: _328  and  _329
REMARK  144  A    between atoms: _334  and  _336
REMARK  145  A    between atoms: _336  and  _337
REMARK  146  A    between atoms: _336  and  _339
REMARK  147  A    between atoms: _339  and  _340
REMARK  148  A    between atoms: _343  and  _345
REMARK  149  A    between atoms: _345  and  _346
REMARK  150  A    between atoms: _345  and  _348
REMARK  151  A    between atoms: _348  and  _349
REMARK  152  A    between atoms: _352  and  _354
REMARK  153  A    between atoms: _354  and  _355
REMARK  154  A    between atoms: _358  and  _360
REMARK  155  A    between atoms: _360  and  _361
REMARK  156  A    between atoms: _360  and  _363
REMARK  157  A    between atoms: _363  and  _364
REMARK  158  A    between atoms: _367  and  _369
REMARK  159  A    between atoms: _369  and  _370
REMARK  160  A    between atoms: _369  and  _372
REMARK  161  A    between atoms: _372  and  _373
REMARK  162  A    between atoms: _376  and  _378
REMARK  163  A    between atoms: _378  and  _379
REMARK  164  A    between atoms: _378  and  _381
REMARK  165  A    between atoms: _381  and  _382
REMARK  166  A    between atoms: _382  and  _383
REMARK  167  A    between atoms: _383  and  _384
REMARK  168  A    between atoms: _393  and  _395
REMARK  169  A    between atoms: _395  and  _396
REMARK  170  A    between atoms: _395  and  _398
REMARK  171  A    between atoms: _398  and  _399
REMARK  172  A    between atoms: _399  and  _400
REMARK  173  A    between atoms: _405  and  _407
REMARK  174  A    between atoms: _407  and  _408
REMARK  175  A    between atoms: _407  and  _410
REMARK  176  A    between atoms: _410  and  _411
REMARK  177  A    between atoms: _411  and  _412
REMARK  178  A    between atoms: _417  and  _419
REMARK  179  A    between atoms: _419  and  _420
REMARK  180  A    between atoms: _419  and  _422
REMARK  181  A    between atoms: _422  and  _423
REMARK  182  A    between atoms: _433  and  _435
REMARK  183  A    between atoms: _435  and  _436
REMARK  184  A    between atoms: _435  and  _438
REMARK  185  A    between atoms: _438  and  _439
REMARK  186  A    between atoms: _442  and  _444
REMARK  187  A    between atoms: _444  and  _445
REMARK  188  A    between atoms: _444  and  _447
REMARK  189  A    between atoms: _447  and  _448
REMARK  190  A    between atoms: _451  and  _453
REMARK  191  A    between atoms: _453  and  _454
REMARK  192  A    between atoms: _453  and  _456
REMARK  193  A    between atoms: _456  and  _457
REMARK  194  A    between atoms: _457  and  _458
REMARK  195  A    between atoms: _458  and  _459
REMARK  196  A    between atoms: _459  and  _460
REMARK  197  A    between atoms: _464  and  _466
REMARK  198  A    between atoms: _466  and  _467
REMARK  199  A    between atoms: _466  and  _469
REMARK  200  A    between atoms: _469  and  _470
REMARK  201  A    between atoms: _470  and  _471
REMARK  202  A    between atoms: _471  and  _472
REMARK  203  A    between atoms: _481  and  _483
REMARK  204  A    between atoms: _483  and  _484
REMARK  205  A    between atoms: _483  and  _486
REMARK  206  A    between atoms: _486  and  _487
REMARK  207  A    between atoms: _490  and  _492
REMARK  208  A    between atoms: _492  and  _493
REMARK  209  A    between atoms: _492  and  _495
REMARK  210  A    between atoms: _498  and  _500
REMARK  211  A    between atoms: _500  and  _501
REMARK  212  A    between atoms: _500  and  _503
REMARK  213  A    between atoms: _503  and  _504
REMARK  214  A    between atoms: _504  and  _505
REMARK  215  A    between atoms: _508  and  _510
REMARK  216  A    between atoms: _510  and  _511
REMARK  217  A    between atoms: _510  and  _513
REMARK  218  A    between atoms: _515  and  _517
REMARK  219  A    between atoms: _517  and  _518
REMARK  220  A    between atoms: _517  and  _520
REMARK  221  A    between atoms: _520  and  _521
REMARK  222  A    between atoms: _521  and  _522
REMARK  223  A    between atoms: _524  and  _526
REMARK  224  A    between atoms: _526  and  _527
REMARK  225  A    between atoms: _526  and  _529
REMARK  226  A    between atoms: _529  and  _530
REMARK  227  A    between atoms: _532  and  _534
REMARK  228  A    between atoms: _534  and  _535
REMARK  229  A    between atoms: _534  and  _537
REMARK  230  A    between atoms: _537  and  _538
REMARK  231  A    between atoms: _541  and  _543
REMARK  232  A    between atoms: _543  and  _544
REMARK  233  A    between atoms: _543  and  _546
REMARK  234  A    between atoms: _546  and  _547
REMARK  235  A    between atoms: _547  and  _548
REMARK  236  A    between atoms: _548  and  _549
REMARK  237  A    between atoms: _558  and  _560
REMARK  238  A    between atoms: _560  and  _561
REMARK  239  A    between atoms: _560  and  _563
REMARK  240  A    between atoms: _566  and  _568
REMARK  241  A    between atoms: _568  and  _569
REMARK  242  A    between atoms: _568  and  _571
REMARK  243  A    between atoms: _571  and  _572
REMARK  244  A    between atoms: _577  and  _578
REMARK                            x       y       z     vdW  Elec       q    Type
REMARK                         _______ _______ _______ _____ _____    ______ ____
ROOT
ATOM      1  O   HOH     1      19.856  13.474 -14.038  0.00  0.00    +0.000 OA
ENDROOT
TORSDOF 0
REMARK  Name = ../refined-set-2016/3hk1/3hk1_pocket.pdb
REMARK  244 active torsions:
REMARK  status: ('A' for Active; 'I' for Inactive)
REMARK    1  A    between atoms: _1  and  _3
REMARK    2  A    between atoms: _3  and  _4
REMARK    3  A    between atoms: _3  and  _6
REMARK    4  A    between atoms: _6  and  _7
REMARK    5  A    between atoms: _10  and  _12
REMARK    6  A    between atoms: _12  and  _13
REMARK    7  A    between atoms: _12  and  _15
REMARK    8  A    between atoms: _18  and  _20
REMARK    9  A    between atoms: _20  and  _21
REMARK   10  A    between atoms: _20  and  _23
REMARK   11  A    between atoms: _23  and  _24
REMARK   12  A    between atoms: _26  and  _28
REMARK   13  A    between atoms: _28  and  _29
REMARK   14  A    between atoms: _28  and  _31
REMARK   15  A    between atoms: _31  and  _32
REMARK   16  A    between atoms: _34  and  _36
REMARK   17  A    between atoms: _36  and  _37
REMARK   18  A    between atoms: _36  and  _39
REMARK   19  A    between atoms: _39  and  _40
REMARK   20  A    between atoms: _46  and  _48
REMARK   21  A    between atoms: _48  and  _49
REMARK   22  A    between atoms: _48  and  _51
REMARK   23  A    between atoms: _51  and  _52
REMARK   24  A    between atoms: _57  and  _58
REMARK   25  A    between atoms: _60  and  _62
REMARK   26  A    between atoms: _62  and  _63
REMARK   27  A    between atoms: _62  and  _65
REMARK   28  A    between atoms: _65  and  _66
REMARK   29  A    between atoms: _66  and  _67
REMARK   30  A    between atoms: _69  and  _71
REMARK   31  A    between atoms: _71  and  _72
REMARK   32  A    between atoms: _71  and  _74
REMARK   33  A    between atoms: _74  and  _75
REMARK   34  A    between atoms: _75  and  _76
REMARK   35  A    between atoms: _76  and  _77
REMARK   36  A    between atoms: _77  and  _78
REMARK   37  A    between atoms: _82  and  _84
REMARK   38  A    between atoms: _84  and  _85
REMARK   39  A    between atoms: _84  and  _87
REMARK   40  A    between atoms: _87  and  _88
REMARK   41  A    between atoms: _88  and  _89
REMARK   42  A    between atoms: _92  and  _94
REMARK   43  A    between atoms: _94  and  _95
REMARK   44  A    between atoms: _94  and  _97
REMARK   45  A    between atoms: _100  and  _102
REMARK   46  A    between atoms: _102  and  _103
REMARK   47  A    between atoms: _105  and  _107
REMARK   48  A    between atoms: _107  and  _108
REMARK   49  A    between atoms: _107  and  _110
REMARK   50  A    between atoms: _113  and  _115
REMARK   51  A    between atoms: _115  and  _116
REMARK   52  A    between atoms: _118  and  _120
REMARK   53  A    between atoms: _120  and  _121
REMARK   54  A    between atoms: _124  and  _126
REMARK   55  A    between atoms: _126  and  _127
REMARK   56  A    between atoms: _126  and  _129
REMARK   57  A    between atoms: _129  and  _130
REMARK   58  A    between atoms: _133  and  _135
REMARK   59  A    between atoms: _135  and  _136
REMARK   60  A    between atoms: _135  and  _138
REMARK   61  A    between atoms: _138  and  _139
REMARK   62  A    between atoms: _139  and  _140
REMARK   63  A    between atoms: _140  and  _141
REMARK   64  A    between atoms: _150  and  _152
REMARK   65  A    between atoms: _152  and  _153
REMARK   66  A    between atoms: _152  and  _155
REMARK   67  A    between atoms: _155  and  _156
REMARK   68  A    between atoms: _156  and  _157
REMARK   69  A    between atoms: _157  and  _158
REMARK   70  A    between atoms: _158  and  _159
REMARK   71  A    between atoms: _163  and  _165
REMARK   72  A    between atoms: _165  and  _166
REMARK   73  A    between atoms: _165  and  _168
REMARK   74  A    between atoms: _171  and  _173
REMARK   75  A    between atoms: _173  and  _174
REMARK   76  A    between atoms: _177  and  _179
REMARK   77  A    between atoms: _179  and  _180
REMARK   78  A    between atoms: _182  and  _184
REMARK   79  A    between atoms: _184  and  _185
REMARK   80  A    between atoms: _184  and  _187
REMARK   81  A    between atoms: _187  and  _188
REMARK   82  A    between atoms: _188  and  _189
REMARK   83  A    between atoms: _191  and  _193
REMARK   84  A    between atoms: _193  and  _194
REMARK   85  A    between atoms: _197  and  _199
REMARK   86  A    between atoms: _199  and  _200
REMARK   87  A    between atoms: _199  and  _202
REMARK   88  A    between atoms: _202  and  _203
REMARK   89  A    between atoms: _203  and  _204
REMARK   90  A    between atoms: _204  and  _205
REMARK   91  A    between atoms: _205  and  _206
REMARK   92  A    between atoms: _211  and  _212
REMARK   93  A    between atoms: _217  and  _219
REMARK   94  A    between atoms: _219  and  _220
REMARK   95  A    between atoms: _219  and  _222
REMARK   96  A    between atoms: _222  and  _223
REMARK   97  A    between atoms: _228  and  _230
REMARK   98  A    between atoms: _230  and  _231
REMARK   99  A    between atoms: _230  and  _233
REMARK  100  A    between atoms: _233  and  _234
REMARK  101  A    between atoms: _234  and  _235
REMARK  102  A    between atoms: _237  and  _239
REMARK  103  A    between atoms: _239  and  _240
REMARK  104  A    between atoms: _239  and  _242
REMARK  105  A    between atoms: _242  and  _243
REMARK  106  A    between atoms: _246  and  _248
REMARK  107  A    between atoms: _248  and  _249
REMARK  108  A    between atoms: _248  and  _251
REMARK  109  A    between atoms: _251  and  _252
REMARK  110  A    between atoms: _252  and  _253
REMARK  111  A    between atoms: _253  and  _254
REMARK  112  A    between atoms: _263  and  _265
REMARK  113  A    between atoms: _265  and  _266
REMARK  114  A    between atoms: _265  and  _268
REMARK  115  A    between atoms: _268  and  _269
REMARK  116  A    between atoms: _271  and  _273
REMARK  117  A    between atoms: _273  and  _274
REMARK  118  A    between atoms: _273  and  _276
REMARK  119  A    between atoms: _276  and  _277
REMARK  120  A    between atoms: _277  and  _278
REMARK  121  A    between atoms: _281  and  _283
REMARK  122  A    between atoms: _283  and  _284
REMARK  123  A    between atoms: _283  and  _286
REMARK  124  A    between atoms: _286  and  _287
REMARK  125  A    between atoms: _289  and  _291
REMARK  126  A    between atoms: _291  and  _292
REMARK  127  A    between atoms: _291  and  _294
REMARK  128  A    between atoms: _294  and  _295
REMARK  129  A    between atoms: _298  and  _300
REMARK  130  A    between atoms: _300  and  _301
REMARK  131  A    between atoms: _300  and  _303
REMARK  132  A    between atoms: _303  and  _304
REMARK  133  A    between atoms: _310  and  _312
REMARK  134  A    between atoms: _312  and  _313
REMARK  135  A    between atoms: _312  and  _315
REMARK  136  A    between atoms: _315  and  _316
REMARK  137  A    between atoms: _316  and  _317
REMARK  138  A    between atoms: _317  and  _318
REMARK  139  A    between atoms: _318  and  _319
REMARK  140  A    between atoms: _323  and  _325
REMARK  141  A    between atoms: _325  and  _326
REMARK  142  A    between atoms: _325  and  _328
REMARK  143  A    between atoms: _328  and  _329
REMARK  144  A    between atoms: _334  and  _336
REMARK  145  A    between atoms: _336  and  _337
REMARK  146  A    between atoms: _336  and  _339
REMARK  147  A    between atoms: _339  and  _340
REMARK  148  A    between atoms: _343  and  _345
REMARK  149  A    between atoms: _345  and  _346
REMARK  150  A    between atoms: _345  and  _348
REMARK  151  A    between atoms: _348  and  _349
REMARK  152  A    between atoms: _352  and  _354
REMARK  153  A    between atoms: _354  and  _355
REMARK  154  A    between atoms: _358  and  _360
REMARK  155  A    between atoms: _360  and  _361
REMARK  156  A    between atoms: _360  and  _363
REMARK  157  A    between atoms: _363  and  _364
REMARK  158  A    between atoms: _367  and  _369
REMARK  159  A    between atoms: _369  and  _370
REMARK  160  A    between atoms: _369  and  _372
REMARK  161  A    between atoms: _372  and  _373
REMARK  162  A    between atoms: _376  and  _378
REMARK  163  A    between atoms: _378  and  _379
REMARK  164  A    between atoms: _378  and  _381
REMARK  165  A    between atoms: _381  and  _382
REMARK  166  A    between atoms: _382  and  _383
REMARK  167  A    between atoms: _383  and  _384
REMARK  168  A    between atoms: _393  and  _395
REMARK  169  A    between atoms: _395  and  _396
REMARK  170  A    between atoms: _395  and  _398
REMARK  171  A    between atoms: _398  and  _399
REMARK  172  A    between atoms: _399  and  _400
REMARK  173  A    between atoms: _405  and  _407
REMARK  174  A    between atoms: _407  and  _408
REMARK  175  A    between atoms: _407  and  _410
REMARK  176  A    between atoms: _410  and  _411
REMARK  177  A    between atoms: _411  and  _412
REMARK  178  A    between atoms: _417  and  _419
REMARK  179  A    between atoms: _419  and  _420
REMARK  180  A    between atoms: _419  and  _422
REMARK  181  A    between atoms: _422  and  _423
REMARK  182  A    between atoms: _433  and  _435
REMARK  183  A    between atoms: _435  and  _436
REMARK  184  A    between atoms: _435  and  _438
REMARK  185  A    between atoms: _438  and  _439
REMARK  186  A    between atoms: _442  and  _444
REMARK  187  A    between atoms: _444  and  _445
REMARK  188  A    between atoms: _444  and  _447
REMARK  189  A    between atoms: _447  and  _448
REMARK  190  A    between atoms: _451  and  _453
REMARK  191  A    between atoms: _453  and  _454
REMARK  192  A    between atoms: _453  and  _456
REMARK  193  A    between atoms: _456  and  _457
REMARK  194  A    between atoms: _457  and  _458
REMARK  195  A    between atoms: _458  and  _459
REMARK  196  A    between atoms: _459  and  _460
REMARK  197  A    between atoms: _464  and  _466
REMARK  198  A    between atoms: _466  and  _467
REMARK  199  A    between atoms: _466  and  _469
REMARK  200  A    between atoms: _469  and  _470
REMARK  201  A    between atoms: _470  and  _471
REMARK  202  A    between atoms: _471  and  _472
REMARK  203  A    between atoms: _481  and  _483
REMARK  204  A    between atoms: _483  and  _484
REMARK  205  A    between atoms: _483  and  _486
REMARK  206  A    between atoms: _486  and  _487
REMARK  207  A    between atoms: _490  and  _492
REMARK  208  A    between atoms: _492  and  _493
REMARK  209  A    between atoms: _492  and  _495
REMARK  210  A    between atoms: _498  and  _500
REMARK  211  A    between atoms: _500  and  _501
REMARK  212  A    between atoms: _500  and  _503
REMARK  213  A    between atoms: _503  and  _504
REMARK  214  A    between atoms: _504  and  _505
REMARK  215  A    between atoms: _508  and  _510
REMARK  216  A    between atoms: _510  and  _511
REMARK  217  A    between atoms: _510  and  _513
REMARK  218  A    between atoms: _515  and  _517
REMARK  219  A    between atoms: _517  and  _518
REMARK  220  A    between atoms: _517  and  _520
REMARK  221  A    between atoms: _520  and  _521
REMARK  222  A    between atoms: _521  and  _522
REMARK  223  A    between atoms: _524  and  _526
REMARK  224  A    between atoms: _526  and  _527
REMARK  225  A    between atoms: _526  and  _529
REMARK  226  A    between atoms: _529  and  _530
REMARK  227  A    between atoms: _532  and  _534
REMARK  228  A    between atoms: _534  and  _535
REMARK  229  A    between atoms: _534  and  _537
REMARK  230  A    between atoms: _537  and  _538
REMARK  231  A    between atoms: _541  and  _543
REMARK  232  A    between atoms: _543  and  _544
REMARK  233  A    between atoms: _543  and  _546
REMARK  234  A    between atoms: _546  and  _547
REMARK  235  A    between atoms: _547  and  _548
REMARK  236  A    between atoms: _548  and  _549
REMARK  237  A    between atoms: _558  and  _560
REMARK  238  A    between atoms: _560  and  _561
REMARK  239  A    between atoms: _560  and  _563
REMARK  240  A    between atoms: _566  and  _568
REMARK  241  A    between atoms: _568  and  _569
REMARK  242  A    between atoms: _568  and  _571
REMARK  243  A    between atoms: _571  and  _572
REMARK  244  A    between atoms: _577  and  _578
REMARK                            x       y       z     vdW  Elec       q    Type
REMARK                         _______ _______ _______ _____ _____    ______ ____
ROOT
ATOM      1  O   HOH     1      14.388  24.486 -17.012  0.00  0.00    +0.000 OA
ENDROOT
TORSDOF 0
REMARK  Name = ../refined-set-2016/3hk1/3hk1_pocket.pdb
REMARK  244 active torsions:
REMARK  status: ('A' for Active; 'I' for Inactive)
REMARK    1  A    between atoms: _1  and  _3
REMARK    2  A    between atoms: _3  and  _4
REMARK    3  A    between atoms: _3  and  _6
REMARK    4  A    between atoms: _6  and  _7
REMARK    5  A    between atoms: _10  and  _12
REMARK    6  A    between atoms: _12  and  _13
REMARK    7  A    between atoms: _12  and  _15
REMARK    8  A    between atoms: _18  and  _20
REMARK    9  A    between atoms: _20  and  _21
REMARK   10  A    between atoms: _20  and  _23
REMARK   11  A    between atoms: _23  and  _24
REMARK   12  A    between atoms: _26  and  _28
REMARK   13  A    between atoms: _28  and  _29
REMARK   14  A    between atoms: _28  and  _31
REMARK   15  A    between atoms: _31  and  _32
REMARK   16  A    between atoms: _34  and  _36
REMARK   17  A    between atoms: _36  and  _37
REMARK   18  A    between atoms: _36  and  _39
REMARK   19  A    between atoms: _39  and  _40
REMARK   20  A    between atoms: _46  and  _48
REMARK   21  A    between atoms: _48  and  _49
REMARK   22  A    between atoms: _48  and  _51
REMARK   23  A    between atoms: _51  and  _52
REMARK   24  A    between atoms: _57  and  _58
REMARK   25  A    between atoms: _60  and  _62
REMARK   26  A    between atoms: _62  and  _63
REMARK   27  A    between atoms: _62  and  _65
REMARK   28  A    between atoms: _65  and  _66
REMARK   29  A    between atoms: _66  and  _67
REMARK   30  A    between atoms: _69  and  _71
REMARK   31  A    between atoms: _71  and  _72
REMARK   32  A    between atoms: _71  and  _74
REMARK   33  A    between atoms: _74  and  _75
REMARK   34  A    between atoms: _75  and  _76
REMARK   35  A    between atoms: _76  and  _77
REMARK   36  A    between atoms: _77  and  _78
REMARK   37  A    between atoms: _82  and  _84
REMARK   38  A    between atoms: _84  and  _85
REMARK   39  A    between atoms: _84  and  _87
REMARK   40  A    between atoms: _87  and  _88
REMARK   41  A    between atoms: _88  and  _89
REMARK   42  A    between atoms: _92  and  _94
REMARK   43  A    between atoms: _94  and  _95
REMARK   44  A    between atoms: _94  and  _97
REMARK   45  A    between atoms: _100  and  _102
REMARK   46  A    between atoms: _102  and  _103
REMARK   47  A    between atoms: _105  and  _107
REMARK   48  A    between atoms: _107  and  _108
REMARK   49  A    between atoms: _107  and  _110
REMARK   50  A    between atoms: _113  and  _115
REMARK   51  A    between atoms: _115  and  _116
REMARK   52  A    between atoms: _118  and  _120
REMARK   53  A    between atoms: _120  and  _121
REMARK   54  A    between atoms: _124  and  _126
REMARK   55  A    between atoms: _126  and  _127
REMARK   56  A    between atoms: _126  and  _129
REMARK   57  A    between atoms: _129  and  _130
REMARK   58  A    between atoms: _133  and  _135
REMARK   59  A    between atoms: _135  and  _136
REMARK   60  A    between atoms: _135  and  _138
REMARK   61  A    between atoms: _138  and  _139
REMARK   62  A    between atoms: _139  and  _140
REMARK   63  A    between atoms: _140  and  _141
REMARK   64  A    between atoms: _150  and  _152
REMARK   65  A    between atoms: _152  and  _153
REMARK   66  A    between atoms: _152  and  _155
REMARK   67  A    between atoms: _155  and  _156
REMARK   68  A    between atoms: _156  and  _157
REMARK   69  A    between atoms: _157  and  _158
REMARK   70  A    between atoms: _158  and  _159
REMARK   71  A    between atoms: _163  and  _165
REMARK   72  A    between atoms: _165  and  _166
REMARK   73  A    between atoms: _165  and  _168
REMARK   74  A    between atoms: _171  and  _173
REMARK   75  A    between atoms: _173  and  _174
REMARK   76  A    between atoms: _177  and  _179
REMARK   77  A    between atoms: _179  and  _180
REMARK   78  A    between atoms: _182  and  _184
REMARK   79  A    between atoms: _184  and  _185
REMARK   80  A    between atoms: _184  and  _187
REMARK   81  A    between atoms: _187  and  _188
REMARK   82  A    between atoms: _188  and  _189
REMARK   83  A    between atoms: _191  and  _193
REMARK   84  A    between atoms: _193  and  _194
REMARK   85  A    between atoms: _197  and  _199
REMARK   86  A    between atoms: _199  and  _200
REMARK   87  A    between atoms: _199  and  _202
REMARK   88  A    between atoms: _202  and  _203
REMARK   89  A    between atoms: _203  and  _204
REMARK   90  A    between atoms: _204  and  _205
REMARK   91  A    between atoms: _205  and  _206
REMARK   92  A    between atoms: _211  and  _212
REMARK   93  A    between atoms: _217  and  _219
REMARK   94  A    between atoms: _219  and  _220
REMARK   95  A    between atoms: _219  and  _222
REMARK   96  A    between atoms: _222  and  _223
REMARK   97  A    between atoms: _228  and  _230
REMARK   98  A    between atoms: _230  and  _231
REMARK   99  A    between atoms: _230  and  _233
REMARK  100  A    between atoms: _233  and  _234
REMARK  101  A    between atoms: _234  and  _235
REMARK  102  A    between atoms: _237  and  _239
REMARK  103  A    between atoms: _239  and  _240
REMARK  104  A    between atoms: _239  and  _242
REMARK  105  A    between atoms: _242  and  _243
REMARK  106  A    between atoms: _246  and  _248
REMARK  107  A    between atoms: _248  and  _249
REMARK  108  A    between atoms: _248  and  _251
REMARK  109  A    between atoms: _251  and  _252
REMARK  110  A    between atoms: _252  and  _253
REMARK  111  A    between atoms: _253  and  _254
REMARK  112  A    between atoms: _263  and  _265
REMARK  113  A    between atoms: _265  and  _266
REMARK  114  A    between atoms: _265  and  _268
REMARK  115  A    between atoms: _268  and  _269
REMARK  116  A    between atoms: _271  and  _273
REMARK  117  A    between atoms: _273  and  _274
REMARK  118  A    between atoms: _273  and  _276
REMARK  119  A    between atoms: _276  and  _277
REMARK  120  A    between atoms: _277  and  _278
REMARK  121  A    between atoms: _281  and  _283
REMARK  122  A    between atoms: _283  and  _284
REMARK  123  A    between atoms: _283  and  _286
REMARK  124  A    between atoms: _286  and  _287
REMARK  125  A    between atoms: _289  and  _291
REMARK  126  A    between atoms: _291  and  _292
REMARK  127  A    between atoms: _291  and  _294
REMARK  128  A    between atoms: _294  and  _295
REMARK  129  A    between atoms: _298  and  _300
REMARK  130  A    between atoms: _300  and  _301
REMARK  131  A    between atoms: _300  and  _303
REMARK  132  A    between atoms: _303  and  _304
REMARK  133  A    between atoms: _310  and  _312
REMARK  134  A    between atoms: _312  and  _313
REMARK  135  A    between atoms: _312  and  _315
REMARK  136  A    between atoms: _315  and  _316
REMARK  137  A    between atoms: _316  and  _317
REMARK  138  A    between atoms: _317  and  _318
REMARK  139  A    between atoms: _318  and  _319
REMARK  140  A    between atoms: _323  and  _325
REMARK  141  A    between atoms: _325  and  _326
REMARK  142  A    between atoms: _325  and  _328
REMARK  143  A    between atoms: _328  and  _329
REMARK  144  A    between atoms: _334  and  _336
REMARK  145  A    between atoms: _336  and  _337
REMARK  146  A    between atoms: _336  and  _339
REMARK  147  A    between atoms: _339  and  _340
REMARK  148  A    between atoms: _343  and  _345
REMARK  149  A    between atoms: _345  and  _346
REMARK  150  A    between atoms: _345  and  _348
REMARK  151  A    between atoms: _348  and  _349
REMARK  152  A    between atoms: _352  and  _354
REMARK  153  A    between atoms: _354  and  _355
REMARK  154  A    between atoms: _358  and  _360
REMARK  155  A    between atoms: _360  and  _361
REMARK  156  A    between atoms: _360  and  _363
REMARK  157  A    between atoms: _363  and  _364
REMARK  158  A    between atoms: _367  and  _369
REMARK  159  A    between atoms: _369  and  _370
REMARK  160  A    between atoms: _369  and  _372
REMARK  161  A    between atoms: _372  and  _373
REMARK  162  A    between atoms: _376  and  _378
REMARK  163  A    between atoms: _378  and  _379
REMARK  164  A    between atoms: _378  and  _381
REMARK  165  A    between atoms: _381  and  _382
REMARK  166  A    between atoms: _382  and  _383
REMARK  167  A    between atoms: _383  and  _384
REMARK  168  A    between atoms: _393  and  _395
REMARK  169  A    between atoms: _395  and  _396
REMARK  170  A    between atoms: _395  and  _398
REMARK  171  A    between atoms: _398  and  _399
REMARK  172  A    between atoms: _399  and  _400
REMARK  173  A    between atoms: _405  and  _407
REMARK  174  A    between atoms: _407  and  _408
REMARK  175  A    between atoms: _407  and  _410
REMARK  176  A    between atoms: _410  and  _411
REMARK  177  A    between atoms: _411  and  _412
REMARK  178  A    between atoms: _417  and  _419
REMARK  179  A    between atoms: _419  and  _420
REMARK  180  A    between atoms: _419  and  _422
REMARK  181  A    between atoms: _422  and  _423
REMARK  182  A    between atoms: _433  and  _435
REMARK  183  A    between atoms: _435  and  _436
REMARK  184  A    between atoms: _435  and  _438
REMARK  185  A    between atoms: _438  and  _439
REMARK  186  A    between atoms: _442  and  _444
REMARK  187  A    between atoms: _444  and  _445
REMARK  188  A    between atoms: _444  and  _447
REMARK  189  A    between atoms: _447  and  _448
REMARK  190  A    between atoms: _451  and  _453
REMARK  191  A    between atoms: _453  and  _454
REMARK  192  A    between atoms: _453  and  _456
REMARK  193  A    between atoms: _456  and  _457
REMARK  194  A    between atoms: _457  and  _458
REMARK  195  A    between atoms: _458  and  _459
REMARK  196  A    between atoms: _459  and  _460
REMARK  197  A    between atoms: _464  and  _466
REMARK  198  A    between atoms: _466  and  _467
REMARK  199  A    between atoms: _466  and  _469
REMARK  200  A    between atoms: _469  and  _470
REMARK  201  A    between atoms: _470  and  _471
REMARK  202  A    between atoms: _471  and  _472
REMARK  203  A    between atoms: _481  and  _483
REMARK  204  A    between atoms: _483  and  _484
REMARK  205  A    between atoms: _483  and  _486
REMARK  206  A    between atoms: _486  and  _487
REMARK  207  A    between atoms: _490  and  _492
REMARK  208  A    between atoms: _492  and  _493
REMARK  209  A    between atoms: _492  and  _495
REMARK  210  A    between atoms: _498  and  _500
REMARK  211  A    between atoms: _500  and  _501
REMARK  212  A    between atoms: _500  and  _503
REMARK  213  A    between atoms: _503  and  _504
REMARK  214  A    between atoms: _504  and  _505
REMARK  215  A    between atoms: _508  and  _510
REMARK  216  A    between atoms: _510  and  _511
REMARK  217  A    between atoms: _510  and  _513
REMARK  218  A    between atoms: _515  and  _517
REMARK  219  A    between atoms: _517  and  _518
REMARK  220  A    between atoms: _517  and  _520
REMARK  221  A    between atoms: _520  and  _521
REMARK  222  A    between atoms: _521  and  _522
REMARK  223  A    between atoms: _524  and  _526
REMARK  224  A    between atoms: _526  and  _527
REMARK  225  A    between atoms: _526  and  _529
REMARK  226  A    between atoms: _529  and  _530
REMARK  227  A    between atoms: _532  and  _534
REMARK  228  A    between atoms: _534  and  _535
REMARK  229  A    between atoms: _534  and  _537
REMARK  230  A    between atoms: _537  and  _538
REMARK  231  A    between atoms: _541  and  _543
REMARK  232  A    between atoms: _543  and  _544
REMARK  233  A    between atoms: _543  and  _546
REMARK  234  A    between atoms: _546  and  _547
REMARK  235  A    between atoms: _547  and  _548
REMARK  236  A    between atoms: _548  and  _549
REMARK  237  A    between atoms: _558  and  _560
REMARK  238  A    between atoms: _560  and  _561
REMARK  239  A    between atoms: _560  and  _563
REMARK  240  A    between atoms: _566  and  _568
REMARK  241  A    between atoms: _568  and  _569
REMARK  242  A    between atoms: _568  and  _571
REMARK  243  A    between atoms: _571  and  _572
REMARK  244  A    between atoms: _577  and  _578
REMARK                            x       y       z     vdW  Elec       q    Type
REMARK                         _______ _______ _______ _____ _____    ______ ____
ROOT
ATOM      1  O   HOH     1       9.516  21.794  -5.720  0.00  0.00    +0.000 OA
ENDROOT
TORSDOF 0
REMARK  Name = ../refined-set-2016/3hk1/3hk1_pocket.pdb
REMARK  244 active torsions:
REMARK  status: ('A' for Active; 'I' for Inactive)
REMARK    1  A    between atoms: _1  and  _3
REMARK    2  A    between atoms: _3  and  _4
REMARK    3  A    between atoms: _3  and  _6
REMARK    4  A    between atoms: _6  and  _7
REMARK    5  A    between atoms: _10  and  _12
REMARK    6  A    between atoms: _12  and  _13
REMARK    7  A    between atoms: _12  and  _15
REMARK    8  A    between atoms: _18  and  _20
REMARK    9  A    between atoms: _20  and  _21
REMARK   10  A    between atoms: _20  and  _23
REMARK   11  A    between atoms: _23  and  _24
REMARK   12  A    between atoms: _26  and  _28
REMARK   13  A    between atoms: _28  and  _29
REMARK   14  A    between atoms: _28  and  _31
REMARK   15  A    between atoms: _31  and  _32
REMARK   16  A    between atoms: _34  and  _36
REMARK   17  A    between atoms: _36  and  _37
REMARK   18  A    between atoms: _36  and  _39
REMARK   19  A    between atoms: _39  and  _40
REMARK   20  A    between atoms: _46  and  _48
REMARK   21  A    between atoms: _48  and  _49
REMARK   22  A    between atoms: _48  and  _51
REMARK   23  A    between atoms: _51  and  _52
REMARK   24  A    between atoms: _57  and  _58
REMARK   25  A    between atoms: _60  and  _62
REMARK   26  A    between atoms: _62  and  _63
REMARK   27  A    between atoms: _62  and  _65
REMARK   28  A    between atoms: _65  and  _66
REMARK   29  A    between atoms: _66  and  _67
REMARK   30  A    between atoms: _69  and  _71
REMARK   31  A    between atoms: _71  and  _72
REMARK   32  A    between atoms: _71  and  _74
REMARK   33  A    between atoms: _74  and  _75
REMARK   34  A    between atoms: _75  and  _76
REMARK   35  A    between atoms: _76  and  _77
REMARK   36  A    between atoms: _77  and  _78
REMARK   37  A    between atoms: _82  and  _84
REMARK   38  A    between atoms: _84  and  _85
REMARK   39  A    between atoms: _84  and  _87
REMARK   40  A    between atoms: _87  and  _88
REMARK   41  A    between atoms: _88  and  _89
REMARK   42  A    between atoms: _92  and  _94
REMARK   43  A    between atoms: _94  and  _95
REMARK   44  A    between atoms: _94  and  _97
REMARK   45  A    between atoms: _100  and  _102
REMARK   46  A    between atoms: _102  and  _103
REMARK   47  A    between atoms: _105  and  _107
REMARK   48  A    between atoms: _107  and  _108
REMARK   49  A    between atoms: _107  and  _110
REMARK   50  A    between atoms: _113  and  _115
REMARK   51  A    between atoms: _115  and  _116
REMARK   52  A    between atoms: _118  and  _120
REMARK   53  A    between atoms: _120  and  _121
REMARK   54  A    between atoms: _124  and  _126
REMARK   55  A    between atoms: _126  and  _127
REMARK   56  A    between atoms: _126  and  _129
REMARK   57  A    between atoms: _129  and  _130
REMARK   58  A    between atoms: _133  and  _135
REMARK   59  A    between atoms: _135  and  _136
REMARK   60  A    between atoms: _135  and  _138
REMARK   61  A    between atoms: _138  and  _139
REMARK   62  A    between atoms: _139  and  _140
REMARK   63  A    between atoms: _140  and  _141
REMARK   64  A    between atoms: _150  and  _152
REMARK   65  A    between atoms: _152  and  _153
REMARK   66  A    between atoms: _152  and  _155
REMARK   67  A    between atoms: _155  and  _156
REMARK   68  A    between atoms: _156  and  _157
REMARK   69  A    between atoms: _157  and  _158
REMARK   70  A    between atoms: _158  and  _159
REMARK   71  A    between atoms: _163  and  _165
REMARK   72  A    between atoms: _165  and  _166
REMARK   73  A    between atoms: _165  and  _168
REMARK   74  A    between atoms: _171  and  _173
REMARK   75  A    between atoms: _173  and  _174
REMARK   76  A    between atoms: _177  and  _179
REMARK   77  A    between atoms: _179  and  _180
REMARK   78  A    between atoms: _182  and  _184
REMARK   79  A    between atoms: _184  and  _185
REMARK   80  A    between atoms: _184  and  _187
REMARK   81  A    between atoms: _187  and  _188
REMARK   82  A    between atoms: _188  and  _189
REMARK   83  A    between atoms: _191  and  _193
REMARK   84  A    between atoms: _193  and  _194
REMARK   85  A    between atoms: _197  and  _199
REMARK   86  A    between atoms: _199  and  _200
REMARK   87  A    between atoms: _199  and  _202
REMARK   88  A    between atoms: _202  and  _203
REMARK   89  A    between atoms: _203  and  _204
REMARK   90  A    between atoms: _204  and  _205
REMARK   91  A    between atoms: _205  and  _206
REMARK   92  A    between atoms: _211  and  _212
REMARK   93  A    between atoms: _217  and  _219
REMARK   94  A    between atoms: _219  and  _220
REMARK   95  A    between atoms: _219  and  _222
REMARK   96  A    between atoms: _222  and  _223
REMARK   97  A    between atoms: _228  and  _230
REMARK   98  A    between atoms: _230  and  _231
REMARK   99  A    between atoms: _230  and  _233
REMARK  100  A    between atoms: _233  and  _234
REMARK  101  A    between atoms: _234  and  _235
REMARK  102  A    between atoms: _237  and  _239
REMARK  103  A    between atoms: _239  and  _240
REMARK  104  A    between atoms: _239  and  _242
REMARK  105  A    between atoms: _242  and  _243
REMARK  106  A    between atoms: _246  and  _248
REMARK  107  A    between atoms: _248  and  _249
REMARK  108  A    between atoms: _248  and  _251
REMARK  109  A    between atoms: _251  and  _252
REMARK  110  A    between atoms: _252  and  _253
REMARK  111  A    between atoms: _253  and  _254
REMARK  112  A    between atoms: _263  and  _265
REMARK  113  A    between atoms: _265  and  _266
REMARK  114  A    between atoms: _265  and  _268
REMARK  115  A    between atoms: _268  and  _269
REMARK  116  A    between atoms: _271  and  _273
REMARK  117  A    between atoms: _273  and  _274
REMARK  118  A    between atoms: _273  and  _276
REMARK  119  A    between atoms: _276  and  _277
REMARK  120  A    between atoms: _277  and  _278
REMARK  121  A    between atoms: _281  and  _283
REMARK  122  A    between atoms: _283  and  _284
REMARK  123  A    between atoms: _283  and  _286
REMARK  124  A    between atoms: _286  and  _287
REMARK  125  A    between atoms: _289  and  _291
REMARK  126  A    between atoms: _291  and  _292
REMARK  127  A    between atoms: _291  and  _294
REMARK  128  A    between atoms: _294  and  _295
REMARK  129  A    between atoms: _298  and  _300
REMARK  130  A    between atoms: _300  and  _301
REMARK  131  A    between atoms: _300  and  _303
REMARK  132  A    between atoms: _303  and  _304
REMARK  133  A    between atoms: _310  and  _312
REMARK  134  A    between atoms: _312  and  _313
REMARK  135  A    between atoms: _312  and  _315
REMARK  136  A    between atoms: _315  and  _316
REMARK  137  A    between atoms: _316  and  _317
REMARK  138  A    between atoms: _317  and  _318
REMARK  139  A    between atoms: _318  and  _319
REMARK  140  A    between atoms: _323  and  _325
REMARK  141  A    between atoms: _325  and  _326
REMARK  142  A    between atoms: _325  and  _328
REMARK  143  A    between atoms: _328  and  _329
REMARK  144  A    between atoms: _334  and  _336
REMARK  145  A    between atoms: _336  and  _337
REMARK  146  A    between atoms: _336  and  _339
REMARK  147  A    between atoms: _339  and  _340
REMARK  148  A    between atoms: _343  and  _345
REMARK  149  A    between atoms: _345  and  _346
REMARK  150  A    between atoms: _345  and  _348
REMARK  151  A    between atoms: _348  and  _349
REMARK  152  A    between atoms: _352  and  _354
REMARK  153  A    between atoms: _354  and  _355
REMARK  154  A    between atoms: _358  and  _360
REMARK  155  A    between atoms: _360  and  _361
REMARK  156  A    between atoms: _360  and  _363
REMARK  157  A    between atoms: _363  and  _364
REMARK  158  A    between atoms: _367  and  _369
REMARK  159  A    between atoms: _369  and  _370
REMARK  160  A    between atoms: _369  and  _372
REMARK  161  A    between atoms: _372  and  _373
REMARK  162  A    between atoms: _376  and  _378
REMARK  163  A    between atoms: _378  and  _379
REMARK  164  A    between atoms: _378  and  _381
REMARK  165  A    between atoms: _381  and  _382
REMARK  166  A    between atoms: _382  and  _383
REMARK  167  A    between atoms: _383  and  _384
REMARK  168  A    between atoms: _393  and  _395
REMARK  169  A    between atoms: _395  and  _396
REMARK  170  A    between atoms: _395  and  _398
REMARK  171  A    between atoms: _398  and  _399
REMARK  172  A    between atoms: _399  and  _400
REMARK  173  A    between atoms: _405  and  _407
REMARK  174  A    between atoms: _407  and  _408
REMARK  175  A    between atoms: _407  and  _410
REMARK  176  A    between atoms: _410  and  _411
REMARK  177  A    between atoms: _411  and  _412
REMARK  178  A    between atoms: _417  and  _419
REMARK  179  A    between atoms: _419  and  _420
REMARK  180  A    between atoms: _419  and  _422
REMARK  181  A    between atoms: _422  and  _423
REMARK  182  A    between atoms: _433  and  _435
REMARK  183  A    between atoms: _435  and  _436
REMARK  184  A    between atoms: _435  and  _438
REMARK  185  A    between atoms: _438  and  _439
REMARK  186  A    between atoms: _442  and  _444
REMARK  187  A    between atoms: _444  and  _445
REMARK  188  A    between atoms: _444  and  _447
REMARK  189  A    between atoms: _447  and  _448
REMARK  190  A    between atoms: _451  and  _453
REMARK  191  A    between atoms: _453  and  _454
REMARK  192  A    between atoms: _453  and  _456
REMARK  193  A    between atoms: _456  and  _457
REMARK  194  A    between atoms: _457  and  _458
REMARK  195  A    between atoms: _458  and  _459
REMARK  196  A    between atoms: _459  and  _460
REMARK  197  A    between atoms: _464  and  _466
REMARK  198  A    between atoms: _466  and  _467
REMARK  199  A    between atoms: _466  and  _469
REMARK  200  A    between atoms: _469  and  _470
REMARK  201  A    between atoms: _470  and  _471
REMARK  202  A    between atoms: _471  and  _472
REMARK  203  A    between atoms: _481  and  _483
REMARK  204  A    between atoms: _483  and  _484
REMARK  205  A    between atoms: _483  and  _486
REMARK  206  A    between atoms: _486  and  _487
REMARK  207  A    between atoms: _490  and  _492
REMARK  208  A    between atoms: _492  and  _493
REMARK  209  A    between atoms: _492  and  _495
REMARK  210  A    between atoms: _498  and  _500
REMARK  211  A    between atoms: _500  and  _501
REMARK  212  A    between atoms: _500  and  _503
REMARK  213  A    between atoms: _503  and  _504
REMARK  214  A    between atoms: _504  and  _505
REMARK  215  A    between atoms: _508  and  _510
REMARK  216  A    between atoms: _510  and  _511
REMARK  217  A    between atoms: _510  and  _513
REMARK  218  A    between atoms: _515  and  _517
REMARK  219  A    between atoms: _517  and  _518
REMARK  220  A    between atoms: _517  and  _520
REMARK  221  A    between atoms: _520  and  _521
REMARK  222  A    between atoms: _521  and  _522
REMARK  223  A    between atoms: _524  and  _526
REMARK  224  A    between atoms: _526  and  _527
REMARK  225  A    between atoms: _526  and  _529
REMARK  226  A    between atoms: _529  and  _530
REMARK  227  A    between atoms: _532  and  _534
REMARK  228  A    between atoms: _534  and  _535
REMARK  229  A    between atoms: _534  and  _537
REMARK  230  A    between atoms: _537  and  _538
REMARK  231  A    between atoms: _541  and  _543
REMARK  232  A    between atoms: _543  and  _544
REMARK  233  A    between atoms: _543  and  _546
REMARK  234  A    between atoms: _546  and  _547
REMARK  235  A    between atoms: _547  and  _548
REMARK  236  A    between atoms: _548  and  _549
REMARK  237  A    between atoms: _558  and  _560
REMARK  238  A    between atoms: _560  and  _561
REMARK  239  A    between atoms: _560  and  _563
REMARK  240  A    between atoms: _566  and  _568
REMARK  241  A    between atoms: _568  and  _569
REMARK  242  A    between atoms: _568  and  _571
REMARK  243  A    between atoms: _571  and  _572
REMARK  244  A    between atoms: _577  and  _578
REMARK                            x       y       z     vdW  Elec       q    Type
REMARK                         _______ _______ _______ _____ _____    ______ ____
ROOT
ATOM      1  O   HOH     1       8.006  18.002  -8.101  0.00  0.00    +0.000 OA
ENDROOT
TORSDOF 0
REMARK  Name = ../refined-set-2016/3hk1/3hk1_pocket.pdb
REMARK  244 active torsions:
REMARK  status: ('A' for Active; 'I' for Inactive)
REMARK    1  A    between atoms: _1  and  _3
REMARK    2  A    between atoms: _3  and  _4
REMARK    3  A    between atoms: _3  and  _6
REMARK    4  A    between atoms: _6  and  _7
REMARK    5  A    between atoms: _10  and  _12
REMARK    6  A    between atoms: _12  and  _13
REMARK    7  A    between atoms: _12  and  _15
REMARK    8  A    between atoms: _18  and  _20
REMARK    9  A    between atoms: _20  and  _21
REMARK   10  A    between atoms: _20  and  _23
REMARK   11  A    between atoms: _23  and  _24
REMARK   12  A    between atoms: _26  and  _28
REMARK   13  A    between atoms: _28  and  _29
REMARK   14  A    between atoms: _28  and  _31
REMARK   15  A    between atoms: _31  and  _32
REMARK   16  A    between atoms: _34  and  _36
REMARK   17  A    between atoms: _36  and  _37
REMARK   18  A    between atoms: _36  and  _39
REMARK   19  A    between atoms: _39  and  _40
REMARK   20  A    between atoms: _46  and  _48
REMARK   21  A    between atoms: _48  and  _49
REMARK   22  A    between atoms: _48  and  _51
REMARK   23  A    between atoms: _51  and  _52
REMARK   24  A    between atoms: _57  and  _58
REMARK   25  A    between atoms: _60  and  _62
REMARK   26  A    between atoms: _62  and  _63
REMARK   27  A    between atoms: _62  and  _65
REMARK   28  A    between atoms: _65  and  _66
REMARK   29  A    between atoms: _66  and  _67
REMARK   30  A    between atoms: _69  and  _71
REMARK   31  A    between atoms: _71  and  _72
REMARK   32  A    between atoms: _71  and  _74
REMARK   33  A    between atoms: _74  and  _75
REMARK   34  A    between atoms: _75  and  _76
REMARK   35  A    between atoms: _76  and  _77
REMARK   36  A    between atoms: _77  and  _78
REMARK   37  A    between atoms: _82  and  _84
REMARK   38  A    between atoms: _84  and  _85
REMARK   39  A    between atoms: _84  and  _87
REMARK   40  A    between atoms: _87  and  _88
REMARK   41  A    between atoms: _88  and  _89
REMARK   42  A    between atoms: _92  and  _94
REMARK   43  A    between atoms: _94  and  _95
REMARK   44  A    between atoms: _94  and  _97
REMARK   45  A    between atoms: _100  and  _102
REMARK   46  A    between atoms: _102  and  _103
REMARK   47  A    between atoms: _105  and  _107
REMARK   48  A    between atoms: _107  and  _108
REMARK   49  A    between atoms: _107  and  _110
REMARK   50  A    between atoms: _113  and  _115
REMARK   51  A    between atoms: _115  and  _116
REMARK   52  A    between atoms: _118  and  _120
REMARK   53  A    between atoms: _120  and  _121
REMARK   54  A    between atoms: _124  and  _126
REMARK   55  A    between atoms: _126  and  _127
REMARK   56  A    between atoms: _126  and  _129
REMARK   57  A    between atoms: _129  and  _130
REMARK   58  A    between atoms: _133  and  _135
REMARK   59  A    between atoms: _135  and  _136
REMARK   60  A    between atoms: _135  and  _138
REMARK   61  A    between atoms: _138  and  _139
REMARK   62  A    between atoms: _139  and  _140
REMARK   63  A    between atoms: _140  and  _141
REMARK   64  A    between atoms: _150  and  _152
REMARK   65  A    between atoms: _152  and  _153
REMARK   66  A    between atoms: _152  and  _155
REMARK   67  A    between atoms: _155  and  _156
REMARK   68  A    between atoms: _156  and  _157
REMARK   69  A    between atoms: _157  and  _158
REMARK   70  A    between atoms: _158  and  _159
REMARK   71  A    between atoms: _163  and  _165
REMARK   72  A    between atoms: _165  and  _166
REMARK   73  A    between atoms: _165  and  _168
REMARK   74  A    between atoms: _171  and  _173
REMARK   75  A    between atoms: _173  and  _174
REMARK   76  A    between atoms: _177  and  _179
REMARK   77  A    between atoms: _179  and  _180
REMARK   78  A    between atoms: _182  and  _184
REMARK   79  A    between atoms: _184  and  _185
REMARK   80  A    between atoms: _184  and  _187
REMARK   81  A    between atoms: _187  and  _188
REMARK   82  A    between atoms: _188  and  _189
REMARK   83  A    between atoms: _191  and  _193
REMARK   84  A    between atoms: _193  and  _194
REMARK   85  A    between atoms: _197  and  _199
REMARK   86  A    between atoms: _199  and  _200
REMARK   87  A    between atoms: _199  and  _202
REMARK   88  A    between atoms: _202  and  _203
REMARK   89  A    between atoms: _203  and  _204
REMARK   90  A    between atoms: _204  and  _205
REMARK   91  A    between atoms: _205  and  _206
REMARK   92  A    between atoms: _211  and  _212
REMARK   93  A    between atoms: _217  and  _219
REMARK   94  A    between atoms: _219  and  _220
REMARK   95  A    between atoms: _219  and  _222
REMARK   96  A    between atoms: _222  and  _223
REMARK   97  A    between atoms: _228  and  _230
REMARK   98  A    between atoms: _230  and  _231
REMARK   99  A    between atoms: _230  and  _233
REMARK  100  A    between atoms: _233  and  _234
REMARK  101  A    between atoms: _234  and  _235
REMARK  102  A    between atoms: _237  and  _239
REMARK  103  A    between atoms: _239  and  _240
REMARK  104  A    between atoms: _239  and  _242
REMARK  105  A    between atoms: _242  and  _243
REMARK  106  A    between atoms: _246  and  _248
REMARK  107  A    between atoms: _248  and  _249
REMARK  108  A    between atoms: _248  and  _251
REMARK  109  A    between atoms: _251  and  _252
REMARK  110  A    between atoms: _252  and  _253
REMARK  111  A    between atoms: _253  and  _254
REMARK  112  A    between atoms: _263  and  _265
REMARK  113  A    between atoms: _265  and  _266
REMARK  114  A    between atoms: _265  and  _268
REMARK  115  A    between atoms: _268  and  _269
REMARK  116  A    between atoms: _271  and  _273
REMARK  117  A    between atoms: _273  and  _274
REMARK  118  A    between atoms: _273  and  _276
REMARK  119  A    between atoms: _276  and  _277
REMARK  120  A    between atoms: _277  and  _278
REMARK  121  A    between atoms: _281  and  _283
REMARK  122  A    between atoms: _283  and  _284
REMARK  123  A    between atoms: _283  and  _286
REMARK  124  A    between atoms: _286  and  _287
REMARK  125  A    between atoms: _289  and  _291
REMARK  126  A    between atoms: _291  and  _292
REMARK  127  A    between atoms: _291  and  _294
REMARK  128  A    between atoms: _294  and  _295
REMARK  129  A    between atoms: _298  and  _300
REMARK  130  A    between atoms: _300  and  _301
REMARK  131  A    between atoms: _300  and  _303
REMARK  132  A    between atoms: _303  and  _304
REMARK  133  A    between atoms: _310  and  _312
REMARK  134  A    between atoms: _312  and  _313
REMARK  135  A    between atoms: _312  and  _315
REMARK  136  A    between atoms: _315  and  _316
REMARK  137  A    between atoms: _316  and  _317
REMARK  138  A    between atoms: _317  and  _318
REMARK  139  A    between atoms: _318  and  _319
REMARK  140  A    between atoms: _323  and  _325
REMARK  141  A    between atoms: _325  and  _326
REMARK  142  A    between atoms: _325  and  _328
REMARK  143  A    between atoms: _328  and  _329
REMARK  144  A    between atoms: _334  and  _336
REMARK  145  A    between atoms: _336  and  _337
REMARK  146  A    between atoms: _336  and  _339
REMARK  147  A    between atoms: _339  and  _340
REMARK  148  A    between atoms: _343  and  _345
REMARK  149  A    between atoms: _345  and  _346
REMARK  150  A    between atoms: _345  and  _348
REMARK  151  A    between atoms: _348  and  _349
REMARK  152  A    between atoms: _352  and  _354
REMARK  153  A    between atoms: _354  and  _355
REMARK  154  A    between atoms: _358  and  _360
REMARK  155  A    between atoms: _360  and  _361
REMARK  156  A    between atoms: _360  and  _363
REMARK  157  A    between atoms: _363  and  _364
REMARK  158  A    between atoms: _367  and  _369
REMARK  159  A    between atoms: _369  and  _370
REMARK  160  A    between atoms: _369  and  _372
REMARK  161  A    between atoms: _372  and  _373
REMARK  162  A    between atoms: _376  and  _378
REMARK  163  A    between atoms: _378  and  _379
REMARK  164  A    between atoms: _378  and  _381
REMARK  165  A    between atoms: _381  and  _382
REMARK  166  A    between atoms: _382  and  _383
REMARK  167  A    between atoms: _383  and  _384
REMARK  168  A    between atoms: _393  and  _395
REMARK  169  A    between atoms: _395  and  _396
REMARK  170  A    between atoms: _395  and  _398
REMARK  171  A    between atoms: _398  and  _399
REMARK  172  A    between atoms: _399  and  _400
REMARK  173  A    between atoms: _405  and  _407
REMARK  174  A    between atoms: _407  and  _408
REMARK  175  A    between atoms: _407  and  _410
REMARK  176  A    between atoms: _410  and  _411
REMARK  177  A    between atoms: _411  and  _412
REMARK  178  A    between atoms: _417  and  _419
REMARK  179  A    between atoms: _419  and  _420
REMARK  180  A    between atoms: _419  and  _422
REMARK  181  A    between atoms: _422  and  _423
REMARK  182  A    between atoms: _433  and  _435
REMARK  183  A    between atoms: _435  and  _436
REMARK  184  A    between atoms: _435  and  _438
REMARK  185  A    between atoms: _438  and  _439
REMARK  186  A    between atoms: _442  and  _444
REMARK  187  A    between atoms: _444  and  _445
REMARK  188  A    between atoms: _444  and  _447
REMARK  189  A    between atoms: _447  and  _448
REMARK  190  A    between atoms: _451  and  _453
REMARK  191  A    between atoms: _453  and  _454
REMARK  192  A    between atoms: _453  and  _456
REMARK  193  A    between atoms: _456  and  _457
REMARK  194  A    between atoms: _457  and  _458
REMARK  195  A    between atoms: _458  and  _459
REMARK  196  A    between atoms: _459  and  _460
REMARK  197  A    between atoms: _464  and  _466
REMARK  198  A    between atoms: _466  and  _467
REMARK  199  A    between atoms: _466  and  _469
REMARK  200  A    between atoms: _469  and  _470
REMARK  201  A    between atoms: _470  and  _471
REMARK  202  A    between atoms: _471  and  _472
REMARK  203  A    between atoms: _481  and  _483
REMARK  204  A    between atoms: _483  and  _484
REMARK  205  A    between atoms: _483  and  _486
REMARK  206  A    between atoms: _486  and  _487
REMARK  207  A    between atoms: _490  and  _492
REMARK  208  A    between atoms: _492  and  _493
REMARK  209  A    between atoms: _492  and  _495
REMARK  210  A    between atoms: _498  and  _500
REMARK  211  A    between atoms: _500  and  _501
REMARK  212  A    between atoms: _500  and  _503
REMARK  213  A    between atoms: _503  and  _504
REMARK  214  A    between atoms: _504  and  _505
REMARK  215  A    between atoms: _508  and  _510
REMARK  216  A    between atoms: _510  and  _511
REMARK  217  A    between atoms: _510  and  _513
REMARK  218  A    between atoms: _515  and  _517
REMARK  219  A    between atoms: _517  and  _518
REMARK  220  A    between atoms: _517  and  _520
REMARK  221  A    between atoms: _520  and  _521
REMARK  222  A    between atoms: _521  and  _522
REMARK  223  A    between atoms: _524  and  _526
REMARK  224  A    between atoms: _526  and  _527
REMARK  225  A    between atoms: _526  and  _529
REMARK  226  A    between atoms: _529  and  _530
REMARK  227  A    between atoms: _532  and  _534
REMARK  228  A    between atoms: _534  and  _535
REMARK  229  A    between atoms: _534  and  _537
REMARK  230  A    between atoms: _537  and  _538
REMARK  231  A    between atoms: _541  and  _543
REMARK  232  A    between atoms: _543  and  _544
REMARK  233  A    between atoms: _543  and  _546
REMARK  234  A    between atoms: _546  and  _547
REMARK  235  A    between atoms: _547  and  _548
REMARK  236  A    between atoms: _548  and  _549
REMARK  237  A    between atoms: _558  and  _560
REMARK  238  A    between atoms: _560  and  _561
REMARK  239  A    between atoms: _560  and  _563
REMARK  240  A    between atoms: _566  and  _568
REMARK  241  A    between atoms: _568  and  _569
REMARK  242  A    between atoms: _568  and  _571
REMARK  243  A    between atoms: _571  and  _572
REMARK  244  A    between atoms: _577  and  _578
REMARK                            x       y       z     vdW  Elec       q    Type
REMARK                         _______ _______ _______ _____ _____    ______ ____
ROOT
ATOM      1  O   HOH     1      14.480  13.612  -6.795  0.00  0.00    +0.000 OA
ENDROOT
TORSDOF 0
REMARK  Name = ../refined-set-2016/3hk1/3hk1_pocket.pdb
REMARK  244 active torsions:
REMARK  status: ('A' for Active; 'I' for Inactive)
REMARK    1  A    between atoms: _1  and  _3
REMARK    2  A    between atoms: _3  and  _4
REMARK    3  A    between atoms: _3  and  _6
REMARK    4  A    between atoms: _6  and  _7
REMARK    5  A    between atoms: _10  and  _12
REMARK    6  A    between atoms: _12  and  _13
REMARK    7  A    between atoms: _12  and  _15
REMARK    8  A    between atoms: _18  and  _20
REMARK    9  A    between atoms: _20  and  _21
REMARK   10  A    between atoms: _20  and  _23
REMARK   11  A    between atoms: _23  and  _24
REMARK   12  A    between atoms: _26  and  _28
REMARK   13  A    between atoms: _28  and  _29
REMARK   14  A    between atoms: _28  and  _31
REMARK   15  A    between atoms: _31  and  _32
REMARK   16  A    between atoms: _34  and  _36
REMARK   17  A    between atoms: _36  and  _37
REMARK   18  A    between atoms: _36  and  _39
REMARK   19  A    between atoms: _39  and  _40
REMARK   20  A    between atoms: _46  and  _48
REMARK   21  A    between atoms: _48  and  _49
REMARK   22  A    between atoms: _48  and  _51
REMARK   23  A    between atoms: _51  and  _52
REMARK   24  A    between atoms: _57  and  _58
REMARK   25  A    between atoms: _60  and  _62
REMARK   26  A    between atoms: _62  and  _63
REMARK   27  A    between atoms: _62  and  _65
REMARK   28  A    between atoms: _65  and  _66
REMARK   29  A    between atoms: _66  and  _67
REMARK   30  A    between atoms: _69  and  _71
REMARK   31  A    between atoms: _71  and  _72
REMARK   32  A    between atoms: _71  and  _74
REMARK   33  A    between atoms: _74  and  _75
REMARK   34  A    between atoms: _75  and  _76
REMARK   35  A    between atoms: _76  and  _77
REMARK   36  A    between atoms: _77  and  _78
REMARK   37  A    between atoms: _82  and  _84
REMARK   38  A    between atoms: _84  and  _85
REMARK   39  A    between atoms: _84  and  _87
REMARK   40  A    between atoms: _87  and  _88
REMARK   41  A    between atoms: _88  and  _89
REMARK   42  A    between atoms: _92  and  _94
REMARK   43  A    between atoms: _94  and  _95
REMARK   44  A    between atoms: _94  and  _97
REMARK   45  A    between atoms: _100  and  _102
REMARK   46  A    between atoms: _102  and  _103
REMARK   47  A    between atoms: _105  and  _107
REMARK   48  A    between atoms: _107  and  _108
REMARK   49  A    between atoms: _107  and  _110
REMARK   50  A    between atoms: _113  and  _115
REMARK   51  A    between atoms: _115  and  _116
REMARK   52  A    between atoms: _118  and  _120
REMARK   53  A    between atoms: _120  and  _121
REMARK   54  A    between atoms: _124  and  _126
REMARK   55  A    between atoms: _126  and  _127
REMARK   56  A    between atoms: _126  and  _129
REMARK   57  A    between atoms: _129  and  _130
REMARK   58  A    between atoms: _133  and  _135
REMARK   59  A    between atoms: _135  and  _136
REMARK   60  A    between atoms: _135  and  _138
REMARK   61  A    between atoms: _138  and  _139
REMARK   62  A    between atoms: _139  and  _140
REMARK   63  A    between atoms: _140  and  _141
REMARK   64  A    between atoms: _150  and  _152
REMARK   65  A    between atoms: _152  and  _153
REMARK   66  A    between atoms: _152  and  _155
REMARK   67  A    between atoms: _155  and  _156
REMARK   68  A    between atoms: _156  and  _157
REMARK   69  A    between atoms: _157  and  _158
REMARK   70  A    between atoms: _158  and  _159
REMARK   71  A    between atoms: _163  and  _165
REMARK   72  A    between atoms: _165  and  _166
REMARK   73  A    between atoms: _165  and  _168
REMARK   74  A    between atoms: _171  and  _173
REMARK   75  A    between atoms: _173  and  _174
REMARK   76  A    between atoms: _177  and  _179
REMARK   77  A    between atoms: _179  and  _180
REMARK   78  A    between atoms: _182  and  _184
REMARK   79  A    between atoms: _184  and  _185
REMARK   80  A    between atoms: _184  and  _187
REMARK   81  A    between atoms: _187  and  _188
REMARK   82  A    between atoms: _188  and  _189
REMARK   83  A    between atoms: _191  and  _193
REMARK   84  A    between atoms: _193  and  _194
REMARK   85  A    between atoms: _197  and  _199
REMARK   86  A    between atoms: _199  and  _200
REMARK   87  A    between atoms: _199  and  _202
REMARK   88  A    between atoms: _202  and  _203
REMARK   89  A    between atoms: _203  and  _204
REMARK   90  A    between atoms: _204  and  _205
REMARK   91  A    between atoms: _205  and  _206
REMARK   92  A    between atoms: _211  and  _212
REMARK   93  A    between atoms: _217  and  _219
REMARK   94  A    between atoms: _219  and  _220
REMARK   95  A    between atoms: _219  and  _222
REMARK   96  A    between atoms: _222  and  _223
REMARK   97  A    between atoms: _228  and  _230
REMARK   98  A    between atoms: _230  and  _231
REMARK   99  A    between atoms: _230  and  _233
REMARK  100  A    between atoms: _233  and  _234
REMARK  101  A    between atoms: _234  and  _235
REMARK  102  A    between atoms: _237  and  _239
REMARK  103  A    between atoms: _239  and  _240
REMARK  104  A    between atoms: _239  and  _242
REMARK  105  A    between atoms: _242  and  _243
REMARK  106  A    between atoms: _246  and  _248
REMARK  107  A    between atoms: _248  and  _249
REMARK  108  A    between atoms: _248  and  _251
REMARK  109  A    between atoms: _251  and  _252
REMARK  110  A    between atoms: _252  and  _253
REMARK  111  A    between atoms: _253  and  _254
REMARK  112  A    between atoms: _263  and  _265
REMARK  113  A    between atoms: _265  and  _266
REMARK  114  A    between atoms: _265  and  _268
REMARK  115  A    between atoms: _268  and  _269
REMARK  116  A    between atoms: _271  and  _273
REMARK  117  A    between atoms: _273  and  _274
REMARK  118  A    between atoms: _273  and  _276
REMARK  119  A    between atoms: _276  and  _277
REMARK  120  A    between atoms: _277  and  _278
REMARK  121  A    between atoms: _281  and  _283
REMARK  122  A    between atoms: _283  and  _284
REMARK  123  A    between atoms: _283  and  _286
REMARK  124  A    between atoms: _286  and  _287
REMARK  125  A    between atoms: _289  and  _291
REMARK  126  A    between atoms: _291  and  _292
REMARK  127  A    between atoms: _291  and  _294
REMARK  128  A    between atoms: _294  and  _295
REMARK  129  A    between atoms: _298  and  _300
REMARK  130  A    between atoms: _300  and  _301
REMARK  131  A    between atoms: _300  and  _303
REMARK  132  A    between atoms: _303  and  _304
REMARK  133  A    between atoms: _310  and  _312
REMARK  134  A    between atoms: _312  and  _313
REMARK  135  A    between atoms: _312  and  _315
REMARK  136  A    between atoms: _315  and  _316
REMARK  137  A    between atoms: _316  and  _317
REMARK  138  A    between atoms: _317  and  _318
REMARK  139  A    between atoms: _318  and  _319
REMARK  140  A    between atoms: _323  and  _325
REMARK  141  A    between atoms: _325  and  _326
REMARK  142  A    between atoms: _325  and  _328
REMARK  143  A    between atoms: _328  and  _329
REMARK  144  A    between atoms: _334  and  _336
REMARK  145  A    between atoms: _336  and  _337
REMARK  146  A    between atoms: _336  and  _339
REMARK  147  A    between atoms: _339  and  _340
REMARK  148  A    between atoms: _343  and  _345
REMARK  149  A    between atoms: _345  and  _346
REMARK  150  A    between atoms: _345  and  _348
REMARK  151  A    between atoms: _348  and  _349
REMARK  152  A    between atoms: _352  and  _354
REMARK  153  A    between atoms: _354  and  _355
REMARK  154  A    between atoms: _358  and  _360
REMARK  155  A    between atoms: _360  and  _361
REMARK  156  A    between atoms: _360  and  _363
REMARK  157  A    between atoms: _363  and  _364
REMARK  158  A    between atoms: _367  and  _369
REMARK  159  A    between atoms: _369  and  _370
REMARK  160  A    between atoms: _369  and  _372
REMARK  161  A    between atoms: _372  and  _373
REMARK  162  A    between atoms: _376  and  _378
REMARK  163  A    between atoms: _378  and  _379
REMARK  164  A    between atoms: _378  and  _381
REMARK  165  A    between atoms: _381  and  _382
REMARK  166  A    between atoms: _382  and  _383
REMARK  167  A    between atoms: _383  and  _384
REMARK  168  A    between atoms: _393  and  _395
REMARK  169  A    between atoms: _395  and  _396
REMARK  170  A    between atoms: _395  and  _398
REMARK  171  A    between atoms: _398  and  _399
REMARK  172  A    between atoms: _399  and  _400
REMARK  173  A    between atoms: _405  and  _407
REMARK  174  A    between atoms: _407  and  _408
REMARK  175  A    between atoms: _407  and  _410
REMARK  176  A    between atoms: _410  and  _411
REMARK  177  A    between atoms: _411  and  _412
REMARK  178  A    between atoms: _417  and  _419
REMARK  179  A    between atoms: _419  and  _420
REMARK  180  A    between atoms: _419  and  _422
REMARK  181  A    between atoms: _422  and  _423
REMARK  182  A    between atoms: _433  and  _435
REMARK  183  A    between atoms: _435  and  _436
REMARK  184  A    between atoms: _435  and  _438
REMARK  185  A    between atoms: _438  and  _439
REMARK  186  A    between atoms: _442  and  _444
REMARK  187  A    between atoms: _444  and  _445
REMARK  188  A    between atoms: _444  and  _447
REMARK  189  A    between atoms: _447  and  _448
REMARK  190  A    between atoms: _451  and  _453
REMARK  191  A    between atoms: _453  and  _454
REMARK  192  A    between atoms: _453  and  _456
REMARK  193  A    between atoms: _456  and  _457
REMARK  194  A    between atoms: _457  and  _458
REMARK  195  A    between atoms: _458  and  _459
REMARK  196  A    between atoms: _459  and  _460
REMARK  197  A    between atoms: _464  and  _466
REMARK  198  A    between atoms: _466  and  _467
REMARK  199  A    between atoms: _466  and  _469
REMARK  200  A    between atoms: _469  and  _470
REMARK  201  A    between atoms: _470  and  _471
REMARK  202  A    between atoms: _471  and  _472
REMARK  203  A    between atoms: _481  and  _483
REMARK  204  A    between atoms: _483  and  _484
REMARK  205  A    between atoms: _483  and  _486
REMARK  206  A    between atoms: _486  and  _487
REMARK  207  A    between atoms: _490  and  _492
REMARK  208  A    between atoms: _492  and  _493
REMARK  209  A    between atoms: _492  and  _495
REMARK  210  A    between atoms: _498  and  _500
REMARK  211  A    between atoms: _500  and  _501
REMARK  212  A    between atoms: _500  and  _503
REMARK  213  A    between atoms: _503  and  _504
REMARK  214  A    between atoms: _504  and  _505
REMARK  215  A    between atoms: _508  and  _510
REMARK  216  A    between atoms: _510  and  _511
REMARK  217  A    between atoms: _510  and  _513
REMARK  218  A    between atoms: _515  and  _517
REMARK  219  A    between atoms: _517  and  _518
REMARK  220  A    between atoms: _517  and  _520
REMARK  221  A    between atoms: _520  and  _521
REMARK  222  A    between atoms: _521  and  _522
REMARK  223  A    between atoms: _524  and  _526
REMARK  224  A    between atoms: _526  and  _527
REMARK  225  A    between atoms: _526  and  _529
REMARK  226  A    between atoms: _529  and  _530
REMARK  227  A    between atoms: _532  and  _534
REMARK  228  A    between atoms: _534  and  _535
REMARK  229  A    between atoms: _534  and  _537
REMARK  230  A    between atoms: _537  and  _538
REMARK  231  A    between atoms: _541  and  _543
REMARK  232  A    between atoms: _543  and  _544
REMARK  233  A    between atoms: _543  and  _546
REMARK  234  A    between atoms: _546  and  _547
REMARK  235  A    between atoms: _547  and  _548
REMARK  236  A    between atoms: _548  and  _549
REMARK  237  A    between atoms: _558  and  _560
REMARK  238  A    between atoms: _560  and  _561
REMARK  239  A    between atoms: _560  and  _563
REMARK  240  A    between atoms: _566  and  _568
REMARK  241  A    between atoms: _568  and  _569
REMARK  242  A    between atoms: _568  and  _571
REMARK  243  A    between atoms: _571  and  _572
REMARK  244  A    between atoms: _577  and  _578
REMARK                            x       y       z     vdW  Elec       q    Type
REMARK                         _______ _______ _______ _____ _____    ______ ____
ROOT
ATOM      1  O   HOH     1       4.416  16.248  -7.072  0.00  0.00    +0.000 OA
ENDROOT
TORSDOF 0
REMARK  Name = ../refined-set-2016/3hk1/3hk1_pocket.pdb
REMARK  244 active torsions:
REMARK  status: ('A' for Active; 'I' for Inactive)
REMARK    1  A    between atoms: _1  and  _3
REMARK    2  A    between atoms: _3  and  _4
REMARK    3  A    between atoms: _3  and  _6
REMARK    4  A    between atoms: _6  and  _7
REMARK    5  A    between atoms: _10  and  _12
REMARK    6  A    between atoms: _12  and  _13
REMARK    7  A    between atoms: _12  and  _15
REMARK    8  A    between atoms: _18  and  _20
REMARK    9  A    between atoms: _20  and  _21
REMARK   10  A    between atoms: _20  and  _23
REMARK   11  A    between atoms: _23  and  _24
REMARK   12  A    between atoms: _26  and  _28
REMARK   13  A    between atoms: _28  and  _29
REMARK   14  A    between atoms: _28  and  _31
REMARK   15  A    between atoms: _31  and  _32
REMARK   16  A    between atoms: _34  and  _36
REMARK   17  A    between atoms: _36  and  _37
REMARK   18  A    between atoms: _36  and  _39
REMARK   19  A    between atoms: _39  and  _40
REMARK   20  A    between atoms: _46  and  _48
REMARK   21  A    between atoms: _48  and  _49
REMARK   22  A    between atoms: _48  and  _51
REMARK   23  A    between atoms: _51  and  _52
REMARK   24  A    between atoms: _57  and  _58
REMARK   25  A    between atoms: _60  and  _62
REMARK   26  A    between atoms: _62  and  _63
REMARK   27  A    between atoms: _62  and  _65
REMARK   28  A    between atoms: _65  and  _66
REMARK   29  A    between atoms: _66  and  _67
REMARK   30  A    between atoms: _69  and  _71
REMARK   31  A    between atoms: _71  and  _72
REMARK   32  A    between atoms: _71  and  _74
REMARK   33  A    between atoms: _74  and  _75
REMARK   34  A    between atoms: _75  and  _76
REMARK   35  A    between atoms: _76  and  _77
REMARK   36  A    between atoms: _77  and  _78
REMARK   37  A    between atoms: _82  and  _84
REMARK   38  A    between atoms: _84  and  _85
REMARK   39  A    between atoms: _84  and  _87
REMARK   40  A    between atoms: _87  and  _88
REMARK   41  A    between atoms: _88  and  _89
REMARK   42  A    between atoms: _92  and  _94
REMARK   43  A    between atoms: _94  and  _95
REMARK   44  A    between atoms: _94  and  _97
REMARK   45  A    between atoms: _100  and  _102
REMARK   46  A    between atoms: _102  and  _103
REMARK   47  A    between atoms: _105  and  _107
REMARK   48  A    between atoms: _107  and  _108
REMARK   49  A    between atoms: _107  and  _110
REMARK   50  A    between atoms: _113  and  _115
REMARK   51  A    between atoms: _115  and  _116
REMARK   52  A    between atoms: _118  and  _120
REMARK   53  A    between atoms: _120  and  _121
REMARK   54  A    between atoms: _124  and  _126
REMARK   55  A    between atoms: _126  and  _127
REMARK   56  A    between atoms: _126  and  _129
REMARK   57  A    between atoms: _129  and  _130
REMARK   58  A    between atoms: _133  and  _135
REMARK   59  A    between atoms: _135  and  _136
REMARK   60  A    between atoms: _135  and  _138
REMARK   61  A    between atoms: _138  and  _139
REMARK   62  A    between atoms: _139  and  _140
REMARK   63  A    between atoms: _140  and  _141
REMARK   64  A    between atoms: _150  and  _152
REMARK   65  A    between atoms: _152  and  _153
REMARK   66  A    between atoms: _152  and  _155
REMARK   67  A    between atoms: _155  and  _156
REMARK   68  A    between atoms: _156  and  _157
REMARK   69  A    between atoms: _157  and  _158
REMARK   70  A    between atoms: _158  and  _159
REMARK   71  A    between atoms: _163  and  _165
REMARK   72  A    between atoms: _165  and  _166
REMARK   73  A    between atoms: _165  and  _168
REMARK   74  A    between atoms: _171  and  _173
REMARK   75  A    between atoms: _173  and  _174
REMARK   76  A    between atoms: _177  and  _179
REMARK   77  A    between atoms: _179  and  _180
REMARK   78  A    between atoms: _182  and  _184
REMARK   79  A    between atoms: _184  and  _185
REMARK   80  A    between atoms: _184  and  _187
REMARK   81  A    between atoms: _187  and  _188
REMARK   82  A    between atoms: _188  and  _189
REMARK   83  A    between atoms: _191  and  _193
REMARK   84  A    between atoms: _193  and  _194
REMARK   85  A    between atoms: _197  and  _199
REMARK   86  A    between atoms: _199  and  _200
REMARK   87  A    between atoms: _199  and  _202
REMARK   88  A    between atoms: _202  and  _203
REMARK   89  A    between atoms: _203  and  _204
REMARK   90  A    between atoms: _204  and  _205
REMARK   91  A    between atoms: _205  and  _206
REMARK   92  A    between atoms: _211  and  _212
REMARK   93  A    between atoms: _217  and  _219
REMARK   94  A    between atoms: _219  and  _220
REMARK   95  A    between atoms: _219  and  _222
REMARK   96  A    between atoms: _222  and  _223
REMARK   97  A    between atoms: _228  and  _230
REMARK   98  A    between atoms: _230  and  _231
REMARK   99  A    between atoms: _230  and  _233
REMARK  100  A    between atoms: _233  and  _234
REMARK  101  A    between atoms: _234  and  _235
REMARK  102  A    between atoms: _237  and  _239
REMARK  103  A    between atoms: _239  and  _240
REMARK  104  A    between atoms: _239  and  _242
REMARK  105  A    between atoms: _242  and  _243
REMARK  106  A    between atoms: _246  and  _248
REMARK  107  A    between atoms: _248  and  _249
REMARK  108  A    between atoms: _248  and  _251
REMARK  109  A    between atoms: _251  and  _252
REMARK  110  A    between atoms: _252  and  _253
REMARK  111  A    between atoms: _253  and  _254
REMARK  112  A    between atoms: _263  and  _265
REMARK  113  A    between atoms: _265  and  _266
REMARK  114  A    between atoms: _265  and  _268
REMARK  115  A    between atoms: _268  and  _269
REMARK  116  A    between atoms: _271  and  _273
REMARK  117  A    between atoms: _273  and  _274
REMARK  118  A    between atoms: _273  and  _276
REMARK  119  A    between atoms: _276  and  _277
REMARK  120  A    between atoms: _277  and  _278
REMARK  121  A    between atoms: _281  and  _283
REMARK  122  A    between atoms: _283  and  _284
REMARK  123  A    between atoms: _283  and  _286
REMARK  124  A    between atoms: _286  and  _287
REMARK  125  A    between atoms: _289  and  _291
REMARK  126  A    between atoms: _291  and  _292
REMARK  127  A    between atoms: _291  and  _294
REMARK  128  A    between atoms: _294  and  _295
REMARK  129  A    between atoms: _298  and  _300
REMARK  130  A    between atoms: _300  and  _301
REMARK  131  A    between atoms: _300  and  _303
REMARK  132  A    between atoms: _303  and  _304
REMARK  133  A    between atoms: _310  and  _312
REMARK  134  A    between atoms: _312  and  _313
REMARK  135  A    between atoms: _312  and  _315
REMARK  136  A    between atoms: _315  and  _316
REMARK  137  A    between atoms: _316  and  _317
REMARK  138  A    between atoms: _317  and  _318
REMARK  139  A    between atoms: _318  and  _319
REMARK  140  A    between atoms: _323  and  _325
REMARK  141  A    between atoms: _325  and  _326
REMARK  142  A    between atoms: _325  and  _328
REMARK  143  A    between atoms: _328  and  _329
REMARK  144  A    between atoms: _334  and  _336
REMARK  145  A    between atoms: _336  and  _337
REMARK  146  A    between atoms: _336  and  _339
REMARK  147  A    between atoms: _339  and  _340
REMARK  148  A    between atoms: _343  and  _345
REMARK  149  A    between atoms: _345  and  _346
REMARK  150  A    between atoms: _345  and  _348
REMARK  151  A    between atoms: _348  and  _349
REMARK  152  A    between atoms: _352  and  _354
REMARK  153  A    between atoms: _354  and  _355
REMARK  154  A    between atoms: _358  and  _360
REMARK  155  A    between atoms: _360  and  _361
REMARK  156  A    between atoms: _360  and  _363
REMARK  157  A    between atoms: _363  and  _364
REMARK  158  A    between atoms: _367  and  _369
REMARK  159  A    between atoms: _369  and  _370
REMARK  160  A    between atoms: _369  and  _372
REMARK  161  A    between atoms: _372  and  _373
REMARK  162  A    between atoms: _376  and  _378
REMARK  163  A    between atoms: _378  and  _379
REMARK  164  A    between atoms: _378  and  _381
REMARK  165  A    between atoms: _381  and  _382
REMARK  166  A    between atoms: _382  and  _383
REMARK  167  A    between atoms: _383  and  _384
REMARK  168  A    between atoms: _393  and  _395
REMARK  169  A    between atoms: _395  and  _396
REMARK  170  A    between atoms: _395  and  _398
REMARK  171  A    between atoms: _398  and  _399
REMARK  172  A    between atoms: _399  and  _400
REMARK  173  A    between atoms: _405  and  _407
REMARK  174  A    between atoms: _407  and  _408
REMARK  175  A    between atoms: _407  and  _410
REMARK  176  A    between atoms: _410  and  _411
REMARK  177  A    between atoms: _411  and  _412
REMARK  178  A    between atoms: _417  and  _419
REMARK  179  A    between atoms: _419  and  _420
REMARK  180  A    between atoms: _419  and  _422
REMARK  181  A    between atoms: _422  and  _423
REMARK  182  A    between atoms: _433  and  _435
REMARK  183  A    between atoms: _435  and  _436
REMARK  184  A    between atoms: _435  and  _438
REMARK  185  A    between atoms: _438  and  _439
REMARK  186  A    between atoms: _442  and  _444
REMARK  187  A    between atoms: _444  and  _445
REMARK  188  A    between atoms: _444  and  _447
REMARK  189  A    between atoms: _447  and  _448
REMARK  190  A    between atoms: _451  and  _453
REMARK  191  A    between atoms: _453  and  _454
REMARK  192  A    between atoms: _453  and  _456
REMARK  193  A    between atoms: _456  and  _457
REMARK  194  A    between atoms: _457  and  _458
REMARK  195  A    between atoms: _458  and  _459
REMARK  196  A    between atoms: _459  and  _460
REMARK  197  A    between atoms: _464  and  _466
REMARK  198  A    between atoms: _466  and  _467
REMARK  199  A    between atoms: _466  and  _469
REMARK  200  A    between atoms: _469  and  _470
REMARK  201  A    between atoms: _470  and  _471
REMARK  202  A    between atoms: _471  and  _472
REMARK  203  A    between atoms: _481  and  _483
REMARK  204  A    between atoms: _483  and  _484
REMARK  205  A    between atoms: _483  and  _486
REMARK  206  A    between atoms: _486  and  _487
REMARK  207  A    between atoms: _490  and  _492
REMARK  208  A    between atoms: _492  and  _493
REMARK  209  A    between atoms: _492  and  _495
REMARK  210  A    between atoms: _498  and  _500
REMARK  211  A    between atoms: _500  and  _501
REMARK  212  A    between atoms: _500  and  _503
REMARK  213  A    between atoms: _503  and  _504
REMARK  214  A    between atoms: _504  and  _505
REMARK  215  A    between atoms: _508  and  _510
REMARK  216  A    between atoms: _510  and  _511
REMARK  217  A    between atoms: _510  and  _513
REMARK  218  A    between atoms: _515  and  _517
REMARK  219  A    between atoms: _517  and  _518
REMARK  220  A    between atoms: _517  and  _520
REMARK  221  A    between atoms: _520  and  _521
REMARK  222  A    between atoms: _521  and  _522
REMARK  223  A    between atoms: _524  and  _526
REMARK  224  A    between atoms: _526  and  _527
REMARK  225  A    between atoms: _526  and  _529
REMARK  226  A    between atoms: _529  and  _530
REMARK  227  A    between atoms: _532  and  _534
REMARK  228  A    between atoms: _534  and  _535
REMARK  229  A    between atoms: _534  and  _537
REMARK  230  A    between atoms: _537  and  _538
REMARK  231  A    between atoms: _541  and  _543
REMARK  232  A    between atoms: _543  and  _544
REMARK  233  A    between atoms: _543  and  _546
REMARK  234  A    between atoms: _546  and  _547
REMARK  235  A    between atoms: _547  and  _548
REMARK  236  A    between atoms: _548  and  _549
REMARK  237  A    between atoms: _558  and  _560
REMARK  238  A    between atoms: _560  and  _561
REMARK  239  A    between atoms: _560  and  _563
REMARK  240  A    between atoms: _566  and  _568
REMARK  241  A    between atoms: _568  and  _569
REMARK  242  A    between atoms: _568  and  _571
REMARK  243  A    between atoms: _571  and  _572
REMARK  244  A    between atoms: _577  and  _578
REMARK                            x       y       z     vdW  Elec       q    Type
REMARK                         _______ _______ _______ _____ _____    ______ ____
ROOT
ATOM      1  O   HOH     1      18.160  20.208 -17.434  0.00  0.00    +0.000 OA
ENDROOT
TORSDOF 0
REMARK  Name = ../refined-set-2016/3hk1/3hk1_pocket.pdb
REMARK  244 active torsions:
REMARK  status: ('A' for Active; 'I' for Inactive)
REMARK    1  A    between atoms: _1  and  _3
REMARK    2  A    between atoms: _3  and  _4
REMARK    3  A    between atoms: _3  and  _6
REMARK    4  A    between atoms: _6  and  _7
REMARK    5  A    between atoms: _10  and  _12
REMARK    6  A    between atoms: _12  and  _13
REMARK    7  A    between atoms: _12  and  _15
REMARK    8  A    between atoms: _18  and  _20
REMARK    9  A    between atoms: _20  and  _21
REMARK   10  A    between atoms: _20  and  _23
REMARK   11  A    between atoms: _23  and  _24
REMARK   12  A    between atoms: _26  and  _28
REMARK   13  A    between atoms: _28  and  _29
REMARK   14  A    between atoms: _28  and  _31
REMARK   15  A    between atoms: _31  and  _32
REMARK   16  A    between atoms: _34  and  _36
REMARK   17  A    between atoms: _36  and  _37
REMARK   18  A    between atoms: _36  and  _39
REMARK   19  A    between atoms: _39  and  _40
REMARK   20  A    between atoms: _46  and  _48
REMARK   21  A    between atoms: _48  and  _49
REMARK   22  A    between atoms: _48  and  _51
REMARK   23  A    between atoms: _51  and  _52
REMARK   24  A    between atoms: _57  and  _58
REMARK   25  A    between atoms: _60  and  _62
REMARK   26  A    between atoms: _62  and  _63
REMARK   27  A    between atoms: _62  and  _65
REMARK   28  A    between atoms: _65  and  _66
REMARK   29  A    between atoms: _66  and  _67
REMARK   30  A    between atoms: _69  and  _71
REMARK   31  A    between atoms: _71  and  _72
REMARK   32  A    between atoms: _71  and  _74
REMARK   33  A    between atoms: _74  and  _75
REMARK   34  A    between atoms: _75  and  _76
REMARK   35  A    between atoms: _76  and  _77
REMARK   36  A    between atoms: _77  and  _78
REMARK   37  A    between atoms: _82  and  _84
REMARK   38  A    between atoms: _84  and  _85
REMARK   39  A    between atoms: _84  and  _87
REMARK   40  A    between atoms: _87  and  _88
REMARK   41  A    between atoms: _88  and  _89
REMARK   42  A    between atoms: _92  and  _94
REMARK   43  A    between atoms: _94  and  _95
REMARK   44  A    between atoms: _94  and  _97
REMARK   45  A    between atoms: _100  and  _102
REMARK   46  A    between atoms: _102  and  _103
REMARK   47  A    between atoms: _105  and  _107
REMARK   48  A    between atoms: _107  and  _108
REMARK   49  A    between atoms: _107  and  _110
REMARK   50  A    between atoms: _113  and  _115
REMARK   51  A    between atoms: _115  and  _116
REMARK   52  A    between atoms: _118  and  _120
REMARK   53  A    between atoms: _120  and  _121
REMARK   54  A    between atoms: _124  and  _126
REMARK   55  A    between atoms: _126  and  _127
REMARK   56  A    between atoms: _126  and  _129
REMARK   57  A    between atoms: _129  and  _130
REMARK   58  A    between atoms: _133  and  _135
REMARK   59  A    between atoms: _135  and  _136
REMARK   60  A    between atoms: _135  and  _138
REMARK   61  A    between atoms: _138  and  _139
REMARK   62  A    between atoms: _139  and  _140
REMARK   63  A    between atoms: _140  and  _141
REMARK   64  A    between atoms: _150  and  _152
REMARK   65  A    between atoms: _152  and  _153
REMARK   66  A    between atoms: _152  and  _155
REMARK   67  A    between atoms: _155  and  _156
REMARK   68  A    between atoms: _156  and  _157
REMARK   69  A    between atoms: _157  and  _158
REMARK   70  A    between atoms: _158  and  _159
REMARK   71  A    between atoms: _163  and  _165
REMARK   72  A    between atoms: _165  and  _166
REMARK   73  A    between atoms: _165  and  _168
REMARK   74  A    between atoms: _171  and  _173
REMARK   75  A    between atoms: _173  and  _174
REMARK   76  A    between atoms: _177  and  _179
REMARK   77  A    between atoms: _179  and  _180
REMARK   78  A    between atoms: _182  and  _184
REMARK   79  A    between atoms: _184  and  _185
REMARK   80  A    between atoms: _184  and  _187
REMARK   81  A    between atoms: _187  and  _188
REMARK   82  A    between atoms: _188  and  _189
REMARK   83  A    between atoms: _191  and  _193
REMARK   84  A    between atoms: _193  and  _194
REMARK   85  A    between atoms: _197  and  _199
REMARK   86  A    between atoms: _199  and  _200
REMARK   87  A    between atoms: _199  and  _202
REMARK   88  A    between atoms: _202  and  _203
REMARK   89  A    between atoms: _203  and  _204
REMARK   90  A    between atoms: _204  and  _205
REMARK   91  A    between atoms: _205  and  _206
REMARK   92  A    between atoms: _211  and  _212
REMARK   93  A    between atoms: _217  and  _219
REMARK   94  A    between atoms: _219  and  _220
REMARK   95  A    between atoms: _219  and  _222
REMARK   96  A    between atoms: _222  and  _223
REMARK   97  A    between atoms: _228  and  _230
REMARK   98  A    between atoms: _230  and  _231
REMARK   99  A    between atoms: _230  and  _233
REMARK  100  A    between atoms: _233  and  _234
REMARK  101  A    between atoms: _234  and  _235
REMARK  102  A    between atoms: _237  and  _239
REMARK  103  A    between atoms: _239  and  _240
REMARK  104  A    between atoms: _239  and  _242
REMARK  105  A    between atoms: _242  and  _243
REMARK  106  A    between atoms: _246  and  _248
REMARK  107  A    between atoms: _248  and  _249
REMARK  108  A    between atoms: _248  and  _251
REMARK  109  A    between atoms: _251  and  _252
REMARK  110  A    between atoms: _252  and  _253
REMARK  111  A    between atoms: _253  and  _254
REMARK  112  A    between atoms: _263  and  _265
REMARK  113  A    between atoms: _265  and  _266
REMARK  114  A    between atoms: _265  and  _268
REMARK  115  A    between atoms: _268  and  _269
REMARK  116  A    between atoms: _271  and  _273
REMARK  117  A    between atoms: _273  and  _274
REMARK  118  A    between atoms: _273  and  _276
REMARK  119  A    between atoms: _276  and  _277
REMARK  120  A    between atoms: _277  and  _278
REMARK  121  A    between atoms: _281  and  _283
REMARK  122  A    between atoms: _283  and  _284
REMARK  123  A    between atoms: _283  and  _286
REMARK  124  A    between atoms: _286  and  _287
REMARK  125  A    between atoms: _289  and  _291
REMARK  126  A    between atoms: _291  and  _292
REMARK  127  A    between atoms: _291  and  _294
REMARK  128  A    between atoms: _294  and  _295
REMARK  129  A    between atoms: _298  and  _300
REMARK  130  A    between atoms: _300  and  _301
REMARK  131  A    between atoms: _300  and  _303
REMARK  132  A    between atoms: _303  and  _304
REMARK  133  A    between atoms: _310  and  _312
REMARK  134  A    between atoms: _312  and  _313
REMARK  135  A    between atoms: _312  and  _315
REMARK  136  A    between atoms: _315  and  _316
REMARK  137  A    between atoms: _316  and  _317
REMARK  138  A    between atoms: _317  and  _318
REMARK  139  A    between atoms: _318  and  _319
REMARK  140  A    between atoms: _323  and  _325
REMARK  141  A    between atoms: _325  and  _326
REMARK  142  A    between atoms: _325  and  _328
REMARK  143  A    between atoms: _328  and  _329
REMARK  144  A    between atoms: _334  and  _336
REMARK  145  A    between atoms: _336  and  _337
REMARK  146  A    between atoms: _336  and  _339
REMARK  147  A    between atoms: _339  and  _340
REMARK  148  A    between atoms: _343  and  _345
REMARK  149  A    between atoms: _345  and  _346
REMARK  150  A    between atoms: _345  and  _348
REMARK  151  A    between atoms: _348  and  _349
REMARK  152  A    between atoms: _352  and  _354
REMARK  153  A    between atoms: _354  and  _355
REMARK  154  A    between atoms: _358  and  _360
REMARK  155  A    between atoms: _360  and  _361
REMARK  156  A    between atoms: _360  and  _363
REMARK  157  A    between atoms: _363  and  _364
REMARK  158  A    between atoms: _367  and  _369
REMARK  159  A    between atoms: _369  and  _370
REMARK  160  A    between atoms: _369  and  _372
REMARK  161  A    between atoms: _372  and  _373
REMARK  162  A    between atoms: _376  and  _378
REMARK  163  A    between atoms: _378  and  _379
REMARK  164  A    between atoms: _378  and  _381
REMARK  165  A    between atoms: _381  and  _382
REMARK  166  A    between atoms: _382  and  _383
REMARK  167  A    between atoms: _383  and  _384
REMARK  168  A    between atoms: _393  and  _395
REMARK  169  A    between atoms: _395  and  _396
REMARK  170  A    between atoms: _395  and  _398
REMARK  171  A    between atoms: _398  and  _399
REMARK  172  A    between atoms: _399  and  _400
REMARK  173  A    between atoms: _405  and  _407
REMARK  174  A    between atoms: _407  and  _408
REMARK  175  A    between atoms: _407  and  _410
REMARK  176  A    between atoms: _410  and  _411
REMARK  177  A    between atoms: _411  and  _412
REMARK  178  A    between atoms: _417  and  _419
REMARK  179  A    between atoms: _419  and  _420
REMARK  180  A    between atoms: _419  and  _422
REMARK  181  A    between atoms: _422  and  _423
REMARK  182  A    between atoms: _433  and  _435
REMARK  183  A    between atoms: _435  and  _436
REMARK  184  A    between atoms: _435  and  _438
REMARK  185  A    between atoms: _438  and  _439
REMARK  186  A    between atoms: _442  and  _444
REMARK  187  A    between atoms: _444  and  _445
REMARK  188  A    between atoms: _444  and  _447
REMARK  189  A    between atoms: _447  and  _448
REMARK  190  A    between atoms: _451  and  _453
REMARK  191  A    between atoms: _453  and  _454
REMARK  192  A    between atoms: _453  and  _456
REMARK  193  A    between atoms: _456  and  _457
REMARK  194  A    between atoms: _457  and  _458
REMARK  195  A    between atoms: _458  and  _459
REMARK  196  A    between atoms: _459  and  _460
REMARK  197  A    between atoms: _464  and  _466
REMARK  198  A    between atoms: _466  and  _467
REMARK  199  A    between atoms: _466  and  _469
REMARK  200  A    between atoms: _469  and  _470
REMARK  201  A    between atoms: _470  and  _471
REMARK  202  A    between atoms: _471  and  _472
REMARK  203  A    between atoms: _481  and  _483
REMARK  204  A    between atoms: _483  and  _484
REMARK  205  A    between atoms: _483  and  _486
REMARK  206  A    between atoms: _486  and  _487
REMARK  207  A    between atoms: _490  and  _492
REMARK  208  A    between atoms: _492  and  _493
REMARK  209  A    between atoms: _492  and  _495
REMARK  210  A    between atoms: _498  and  _500
REMARK  211  A    between atoms: _500  and  _501
REMARK  212  A    between atoms: _500  and  _503
REMARK  213  A    between atoms: _503  and  _504
REMARK  214  A    between atoms: _504  and  _505
REMARK  215  A    between atoms: _508  and  _510
REMARK  216  A    between atoms: _510  and  _511
REMARK  217  A    between atoms: _510  and  _513
REMARK  218  A    between atoms: _515  and  _517
REMARK  219  A    between atoms: _517  and  _518
REMARK  220  A    between atoms: _517  and  _520
REMARK  221  A    between atoms: _520  and  _521
REMARK  222  A    between atoms: _521  and  _522
REMARK  223  A    between atoms: _524  and  _526
REMARK  224  A    between atoms: _526  and  _527
REMARK  225  A    between atoms: _526  and  _529
REMARK  226  A    between atoms: _529  and  _530
REMARK  227  A    between atoms: _532  and  _534
REMARK  228  A    between atoms: _534  and  _535
REMARK  229  A    between atoms: _534  and  _537
REMARK  230  A    between atoms: _537  and  _538
REMARK  231  A    between atoms: _541  and  _543
REMARK  232  A    between atoms: _543  and  _544
REMARK  233  A    between atoms: _543  and  _546
REMARK  234  A    between atoms: _546  and  _547
REMARK  235  A    between atoms: _547  and  _548
REMARK  236  A    between atoms: _548  and  _549
REMARK  237  A    between atoms: _558  and  _560
REMARK  238  A    between atoms: _560  and  _561
REMARK  239  A    between atoms: _560  and  _563
REMARK  240  A    between atoms: _566  and  _568
REMARK  241  A    between atoms: _568  and  _569
REMARK  242  A    between atoms: _568  and  _571
REMARK  243  A    between atoms: _571  and  _572
REMARK  244  A    between atoms: _577  and  _578
REMARK                            x       y       z     vdW  Elec       q    Type
REMARK                         _______ _______ _______ _____ _____    ______ ____
ROOT
ATOM      1  O   HOH     1      12.602  16.038  -9.179  0.00  0.00    +0.000 OA
ENDROOT
TORSDOF 0
REMARK  Name = ../refined-set-2016/3hk1/3hk1_pocket.pdb
REMARK  244 active torsions:
REMARK  status: ('A' for Active; 'I' for Inactive)
REMARK    1  A    between atoms: _1  and  _3
REMARK    2  A    between atoms: _3  and  _4
REMARK    3  A    between atoms: _3  and  _6
REMARK    4  A    between atoms: _6  and  _7
REMARK    5  A    between atoms: _10  and  _12
REMARK    6  A    between atoms: _12  and  _13
REMARK    7  A    between atoms: _12  and  _15
REMARK    8  A    between atoms: _18  and  _20
REMARK    9  A    between atoms: _20  and  _21
REMARK   10  A    between atoms: _20  and  _23
REMARK   11  A    between atoms: _23  and  _24
REMARK   12  A    between atoms: _26  and  _28
REMARK   13  A    between atoms: _28  and  _29
REMARK   14  A    between atoms: _28  and  _31
REMARK   15  A    between atoms: _31  and  _32
REMARK   16  A    between atoms: _34  and  _36
REMARK   17  A    between atoms: _36  and  _37
REMARK   18  A    between atoms: _36  and  _39
REMARK   19  A    between atoms: _39  and  _40
REMARK   20  A    between atoms: _46  and  _48
REMARK   21  A    between atoms: _48  and  _49
REMARK   22  A    between atoms: _48  and  _51
REMARK   23  A    between atoms: _51  and  _52
REMARK   24  A    between atoms: _57  and  _58
REMARK   25  A    between atoms: _60  and  _62
REMARK   26  A    between atoms: _62  and  _63
REMARK   27  A    between atoms: _62  and  _65
REMARK   28  A    between atoms: _65  and  _66
REMARK   29  A    between atoms: _66  and  _67
REMARK   30  A    between atoms: _69  and  _71
REMARK   31  A    between atoms: _71  and  _72
REMARK   32  A    between atoms: _71  and  _74
REMARK   33  A    between atoms: _74  and  _75
REMARK   34  A    between atoms: _75  and  _76
REMARK   35  A    between atoms: _76  and  _77
REMARK   36  A    between atoms: _77  and  _78
REMARK   37  A    between atoms: _82  and  _84
REMARK   38  A    between atoms: _84  and  _85
REMARK   39  A    between atoms: _84  and  _87
REMARK   40  A    between atoms: _87  and  _88
REMARK   41  A    between atoms: _88  and  _89
REMARK   42  A    between atoms: _92  and  _94
REMARK   43  A    between atoms: _94  and  _95
REMARK   44  A    between atoms: _94  and  _97
REMARK   45  A    between atoms: _100  and  _102
REMARK   46  A    between atoms: _102  and  _103
REMARK   47  A    between atoms: _105  and  _107
REMARK   48  A    between atoms: _107  and  _108
REMARK   49  A    between atoms: _107  and  _110
REMARK   50  A    between atoms: _113  and  _115
REMARK   51  A    between atoms: _115  and  _116
REMARK   52  A    between atoms: _118  and  _120
REMARK   53  A    between atoms: _120  and  _121
REMARK   54  A    between atoms: _124  and  _126
REMARK   55  A    between atoms: _126  and  _127
REMARK   56  A    between atoms: _126  and  _129
REMARK   57  A    between atoms: _129  and  _130
REMARK   58  A    between atoms: _133  and  _135
REMARK   59  A    between atoms: _135  and  _136
REMARK   60  A    between atoms: _135  and  _138
REMARK   61  A    between atoms: _138  and  _139
REMARK   62  A    between atoms: _139  and  _140
REMARK   63  A    between atoms: _140  and  _141
REMARK   64  A    between atoms: _150  and  _152
REMARK   65  A    between atoms: _152  and  _153
REMARK   66  A    between atoms: _152  and  _155
REMARK   67  A    between atoms: _155  and  _156
REMARK   68  A    between atoms: _156  and  _157
REMARK   69  A    between atoms: _157  and  _158
REMARK   70  A    between atoms: _158  and  _159
REMARK   71  A    between atoms: _163  and  _165
REMARK   72  A    between atoms: _165  and  _166
REMARK   73  A    between atoms: _165  and  _168
REMARK   74  A    between atoms: _171  and  _173
REMARK   75  A    between atoms: _173  and  _174
REMARK   76  A    between atoms: _177  and  _179
REMARK   77  A    between atoms: _179  and  _180
REMARK   78  A    between atoms: _182  and  _184
REMARK   79  A    between atoms: _184  and  _185
REMARK   80  A    between atoms: _184  and  _187
REMARK   81  A    between atoms: _187  and  _188
REMARK   82  A    between atoms: _188  and  _189
REMARK   83  A    between atoms: _191  and  _193
REMARK   84  A    between atoms: _193  and  _194
REMARK   85  A    between atoms: _197  and  _199
REMARK   86  A    between atoms: _199  and  _200
REMARK   87  A    between atoms: _199  and  _202
REMARK   88  A    between atoms: _202  and  _203
REMARK   89  A    between atoms: _203  and  _204
REMARK   90  A    between atoms: _204  and  _205
REMARK   91  A    between atoms: _205  and  _206
REMARK   92  A    between atoms: _211  and  _212
REMARK   93  A    between atoms: _217  and  _219
REMARK   94  A    between atoms: _219  and  _220
REMARK   95  A    between atoms: _219  and  _222
REMARK   96  A    between atoms: _222  and  _223
REMARK   97  A    between atoms: _228  and  _230
REMARK   98  A    between atoms: _230  and  _231
REMARK   99  A    between atoms: _230  and  _233
REMARK  100  A    between atoms: _233  and  _234
REMARK  101  A    between atoms: _234  and  _235
REMARK  102  A    between atoms: _237  and  _239
REMARK  103  A    between atoms: _239  and  _240
REMARK  104  A    between atoms: _239  and  _242
REMARK  105  A    between atoms: _242  and  _243
REMARK  106  A    between atoms: _246  and  _248
REMARK  107  A    between atoms: _248  and  _249
REMARK  108  A    between atoms: _248  and  _251
REMARK  109  A    between atoms: _251  and  _252
REMARK  110  A    between atoms: _252  and  _253
REMARK  111  A    between atoms: _253  and  _254
REMARK  112  A    between atoms: _263  and  _265
REMARK  113  A    between atoms: _265  and  _266
REMARK  114  A    between atoms: _265  and  _268
REMARK  115  A    between atoms: _268  and  _269
REMARK  116  A    between atoms: _271  and  _273
REMARK  117  A    between atoms: _273  and  _274
REMARK  118  A    between atoms: _273  and  _276
REMARK  119  A    between atoms: _276  and  _277
REMARK  120  A    between atoms: _277  and  _278
REMARK  121  A    between atoms: _281  and  _283
REMARK  122  A    between atoms: _283  and  _284
REMARK  123  A    between atoms: _283  and  _286
REMARK  124  A    between atoms: _286  and  _287
REMARK  125  A    between atoms: _289  and  _291
REMARK  126  A    between atoms: _291  and  _292
REMARK  127  A    between atoms: _291  and  _294
REMARK  128  A    between atoms: _294  and  _295
REMARK  129  A    between atoms: _298  and  _300
REMARK  130  A    between atoms: _300  and  _301
REMARK  131  A    between atoms: _300  and  _303
REMARK  132  A    between atoms: _303  and  _304
REMARK  133  A    between atoms: _310  and  _312
REMARK  134  A    between atoms: _312  and  _313
REMARK  135  A    between atoms: _312  and  _315
REMARK  136  A    between atoms: _315  and  _316
REMARK  137  A    between atoms: _316  and  _317
REMARK  138  A    between atoms: _317  and  _318
REMARK  139  A    between atoms: _318  and  _319
REMARK  140  A    between atoms: _323  and  _325
REMARK  141  A    between atoms: _325  and  _326
REMARK  142  A    between atoms: _325  and  _328
REMARK  143  A    between atoms: _328  and  _329
REMARK  144  A    between atoms: _334  and  _336
REMARK  145  A    between atoms: _336  and  _337
REMARK  146  A    between atoms: _336  and  _339
REMARK  147  A    between atoms: _339  and  _340
REMARK  148  A    between atoms: _343  and  _345
REMARK  149  A    between atoms: _345  and  _346
REMARK  150  A    between atoms: _345  and  _348
REMARK  151  A    between atoms: _348  and  _349
REMARK  152  A    between atoms: _352  and  _354
REMARK  153  A    between atoms: _354  and  _355
REMARK  154  A    between atoms: _358  and  _360
REMARK  155  A    between atoms: _360  and  _361
REMARK  156  A    between atoms: _360  and  _363
REMARK  157  A    between atoms: _363  and  _364
REMARK  158  A    between atoms: _367  and  _369
REMARK  159  A    between atoms: _369  and  _370
REMARK  160  A    between atoms: _369  and  _372
REMARK  161  A    between atoms: _372  and  _373
REMARK  162  A    between atoms: _376  and  _378
REMARK  163  A    between atoms: _378  and  _379
REMARK  164  A    between atoms: _378  and  _381
REMARK  165  A    between atoms: _381  and  _382
REMARK  166  A    between atoms: _382  and  _383
REMARK  167  A    between atoms: _383  and  _384
REMARK  168  A    between atoms: _393  and  _395
REMARK  169  A    between atoms: _395  and  _396
REMARK  170  A    between atoms: _395  and  _398
REMARK  171  A    between atoms: _398  and  _399
REMARK  172  A    between atoms: _399  and  _400
REMARK  173  A    between atoms: _405  and  _407
REMARK  174  A    between atoms: _407  and  _408
REMARK  175  A    between atoms: _407  and  _410
REMARK  176  A    between atoms: _410  and  _411
REMARK  177  A    between atoms: _411  and  _412
REMARK  178  A    between atoms: _417  and  _419
REMARK  179  A    between atoms: _419  and  _420
REMARK  180  A    between atoms: _419  and  _422
REMARK  181  A    between atoms: _422  and  _423
REMARK  182  A    between atoms: _433  and  _435
REMARK  183  A    between atoms: _435  and  _436
REMARK  184  A    between atoms: _435  and  _438
REMARK  185  A    between atoms: _438  and  _439
REMARK  186  A    between atoms: _442  and  _444
REMARK  187  A    between atoms: _444  and  _445
REMARK  188  A    between atoms: _444  and  _447
REMARK  189  A    between atoms: _447  and  _448
REMARK  190  A    between atoms: _451  and  _453
REMARK  191  A    between atoms: _453  and  _454
REMARK  192  A    between atoms: _453  and  _456
REMARK  193  A    between atoms: _456  and  _457
REMARK  194  A    between atoms: _457  and  _458
REMARK  195  A    between atoms: _458  and  _459
REMARK  196  A    between atoms: _459  and  _460
REMARK  197  A    between atoms: _464  and  _466
REMARK  198  A    between atoms: _466  and  _467
REMARK  199  A    between atoms: _466  and  _469
REMARK  200  A    between atoms: _469  and  _470
REMARK  201  A    between atoms: _470  and  _471
REMARK  202  A    between atoms: _471  and  _472
REMARK  203  A    between atoms: _481  and  _483
REMARK  204  A    between atoms: _483  and  _484
REMARK  205  A    between atoms: _483  and  _486
REMARK  206  A    between atoms: _486  and  _487
REMARK  207  A    between atoms: _490  and  _492
REMARK  208  A    between atoms: _492  and  _493
REMARK  209  A    between atoms: _492  and  _495
REMARK  210  A    between atoms: _498  and  _500
REMARK  211  A    between atoms: _500  and  _501
REMARK  212  A    between atoms: _500  and  _503
REMARK  213  A    between atoms: _503  and  _504
REMARK  214  A    between atoms: _504  and  _505
REMARK  215  A    between atoms: _508  and  _510
REMARK  216  A    between atoms: _510  and  _511
REMARK  217  A    between atoms: _510  and  _513
REMARK  218  A    between atoms: _515  and  _517
REMARK  219  A    between atoms: _517  and  _518
REMARK  220  A    between atoms: _517  and  _520
REMARK  221  A    between atoms: _520  and  _521
REMARK  222  A    between atoms: _521  and  _522
REMARK  223  A    between atoms: _524  and  _526
REMARK  224  A    between atoms: _526  and  _527
REMARK  225  A    between atoms: _526  and  _529
REMARK  226  A    between atoms: _529  and  _530
REMARK  227  A    between atoms: _532  and  _534
REMARK  228  A    between atoms: _534  and  _535
REMARK  229  A    between atoms: _534  and  _537
REMARK  230  A    between atoms: _537  and  _538
REMARK  231  A    between atoms: _541  and  _543
REMARK  232  A    between atoms: _543  and  _544
REMARK  233  A    between atoms: _543  and  _546
REMARK  234  A    between atoms: _546  and  _547
REMARK  235  A    between atoms: _547  and  _548
REMARK  236  A    between atoms: _548  and  _549
REMARK  237  A    between atoms: _558  and  _560
REMARK  238  A    between atoms: _560  and  _561
REMARK  239  A    between atoms: _560  and  _563
REMARK  240  A    between atoms: _566  and  _568
REMARK  241  A    between atoms: _568  and  _569
REMARK  242  A    between atoms: _568  and  _571
REMARK  243  A    between atoms: _571  and  _572
REMARK  244  A    between atoms: _577  and  _578
REMARK                            x       y       z     vdW  Elec       q    Type
REMARK                         _______ _______ _______ _____ _____    ______ ____
ROOT
ATOM      1  O   HOH     1       8.669  17.534 -15.885  0.00  0.00    +0.000 OA
ENDROOT
TORSDOF 0
REMARK  Name = ../refined-set-2016/3hk1/3hk1_pocket.pdb
REMARK  244 active torsions:
REMARK  status: ('A' for Active; 'I' for Inactive)
REMARK    1  A    between atoms: _1  and  _3
REMARK    2  A    between atoms: _3  and  _4
REMARK    3  A    between atoms: _3  and  _6
REMARK    4  A    between atoms: _6  and  _7
REMARK    5  A    between atoms: _10  and  _12
REMARK    6  A    between atoms: _12  and  _13
REMARK    7  A    between atoms: _12  and  _15
REMARK    8  A    between atoms: _18  and  _20
REMARK    9  A    between atoms: _20  and  _21
REMARK   10  A    between atoms: _20  and  _23
REMARK   11  A    between atoms: _23  and  _24
REMARK   12  A    between atoms: _26  and  _28
REMARK   13  A    between atoms: _28  and  _29
REMARK   14  A    between atoms: _28  and  _31
REMARK   15  A    between atoms: _31  and  _32
REMARK   16  A    between atoms: _34  and  _36
REMARK   17  A    between atoms: _36  and  _37
REMARK   18  A    between atoms: _36  and  _39
REMARK   19  A    between atoms: _39  and  _40
REMARK   20  A    between atoms: _46  and  _48
REMARK   21  A    between atoms: _48  and  _49
REMARK   22  A    between atoms: _48  and  _51
REMARK   23  A    between atoms: _51  and  _52
REMARK   24  A    between atoms: _57  and  _58
REMARK   25  A    between atoms: _60  and  _62
REMARK   26  A    between atoms: _62  and  _63
REMARK   27  A    between atoms: _62  and  _65
REMARK   28  A    between atoms: _65  and  _66
REMARK   29  A    between atoms: _66  and  _67
REMARK   30  A    between atoms: _69  and  _71
REMARK   31  A    between atoms: _71  and  _72
REMARK   32  A    between atoms: _71  and  _74
REMARK   33  A    between atoms: _74  and  _75
REMARK   34  A    between atoms: _75  and  _76
REMARK   35  A    between atoms: _76  and  _77
REMARK   36  A    between atoms: _77  and  _78
REMARK   37  A    between atoms: _82  and  _84
REMARK   38  A    between atoms: _84  and  _85
REMARK   39  A    between atoms: _84  and  _87
REMARK   40  A    between atoms: _87  and  _88
REMARK   41  A    between atoms: _88  and  _89
REMARK   42  A    between atoms: _92  and  _94
REMARK   43  A    between atoms: _94  and  _95
REMARK   44  A    between atoms: _94  and  _97
REMARK   45  A    between atoms: _100  and  _102
REMARK   46  A    between atoms: _102  and  _103
REMARK   47  A    between atoms: _105  and  _107
REMARK   48  A    between atoms: _107  and  _108
REMARK   49  A    between atoms: _107  and  _110
REMARK   50  A    between atoms: _113  and  _115
REMARK   51  A    between atoms: _115  and  _116
REMARK   52  A    between atoms: _118  and  _120
REMARK   53  A    between atoms: _120  and  _121
REMARK   54  A    between atoms: _124  and  _126
REMARK   55  A    between atoms: _126  and  _127
REMARK   56  A    between atoms: _126  and  _129
REMARK   57  A    between atoms: _129  and  _130
REMARK   58  A    between atoms: _133  and  _135
REMARK   59  A    between atoms: _135  and  _136
REMARK   60  A    between atoms: _135  and  _138
REMARK   61  A    between atoms: _138  and  _139
REMARK   62  A    between atoms: _139  and  _140
REMARK   63  A    between atoms: _140  and  _141
REMARK   64  A    between atoms: _150  and  _152
REMARK   65  A    between atoms: _152  and  _153
REMARK   66  A    between atoms: _152  and  _155
REMARK   67  A    between atoms: _155  and  _156
REMARK   68  A    between atoms: _156  and  _157
REMARK   69  A    between atoms: _157  and  _158
REMARK   70  A    between atoms: _158  and  _159
REMARK   71  A    between atoms: _163  and  _165
REMARK   72  A    between atoms: _165  and  _166
REMARK   73  A    between atoms: _165  and  _168
REMARK   74  A    between atoms: _171  and  _173
REMARK   75  A    between atoms: _173  and  _174
REMARK   76  A    between atoms: _177  and  _179
REMARK   77  A    between atoms: _179  and  _180
REMARK   78  A    between atoms: _182  and  _184
REMARK   79  A    between atoms: _184  and  _185
REMARK   80  A    between atoms: _184  and  _187
REMARK   81  A    between atoms: _187  and  _188
REMARK   82  A    between atoms: _188  and  _189
REMARK   83  A    between atoms: _191  and  _193
REMARK   84  A    between atoms: _193  and  _194
REMARK   85  A    between atoms: _197  and  _199
REMARK   86  A    between atoms: _199  and  _200
REMARK   87  A    between atoms: _199  and  _202
REMARK   88  A    between atoms: _202  and  _203
REMARK   89  A    between atoms: _203  and  _204
REMARK   90  A    between atoms: _204  and  _205
REMARK   91  A    between atoms: _205  and  _206
REMARK   92  A    between atoms: _211  and  _212
REMARK   93  A    between atoms: _217  and  _219
REMARK   94  A    between atoms: _219  and  _220
REMARK   95  A    between atoms: _219  and  _222
REMARK   96  A    between atoms: _222  and  _223
REMARK   97  A    between atoms: _228  and  _230
REMARK   98  A    between atoms: _230  and  _231
REMARK   99  A    between atoms: _230  and  _233
REMARK  100  A    between atoms: _233  and  _234
REMARK  101  A    between atoms: _234  and  _235
REMARK  102  A    between atoms: _237  and  _239
REMARK  103  A    between atoms: _239  and  _240
REMARK  104  A    between atoms: _239  and  _242
REMARK  105  A    between atoms: _242  and  _243
REMARK  106  A    between atoms: _246  and  _248
REMARK  107  A    between atoms: _248  and  _249
REMARK  108  A    between atoms: _248  and  _251
REMARK  109  A    between atoms: _251  and  _252
REMARK  110  A    between atoms: _252  and  _253
REMARK  111  A    between atoms: _253  and  _254
REMARK  112  A    between atoms: _263  and  _265
REMARK  113  A    between atoms: _265  and  _266
REMARK  114  A    between atoms: _265  and  _268
REMARK  115  A    between atoms: _268  and  _269
REMARK  116  A    between atoms: _271  and  _273
REMARK  117  A    between atoms: _273  and  _274
REMARK  118  A    between atoms: _273  and  _276
REMARK  119  A    between atoms: _276  and  _277
REMARK  120  A    between atoms: _277  and  _278
REMARK  121  A    between atoms: _281  and  _283
REMARK  122  A    between atoms: _283  and  _284
REMARK  123  A    between atoms: _283  and  _286
REMARK  124  A    between atoms: _286  and  _287
REMARK  125  A    between atoms: _289  and  _291
REMARK  126  A    between atoms: _291  and  _292
REMARK  127  A    between atoms: _291  and  _294
REMARK  128  A    between atoms: _294  and  _295
REMARK  129  A    between atoms: _298  and  _300
REMARK  130  A    between atoms: _300  and  _301
REMARK  131  A    between atoms: _300  and  _303
REMARK  132  A    between atoms: _303  and  _304
REMARK  133  A    between atoms: _310  and  _312
REMARK  134  A    between atoms: _312  and  _313
REMARK  135  A    between atoms: _312  and  _315
REMARK  136  A    between atoms: _315  and  _316
REMARK  137  A    between atoms: _316  and  _317
REMARK  138  A    between atoms: _317  and  _318
REMARK  139  A    between atoms: _318  and  _319
REMARK  140  A    between atoms: _323  and  _325
REMARK  141  A    between atoms: _325  and  _326
REMARK  142  A    between atoms: _325  and  _328
REMARK  143  A    between atoms: _328  and  _329
REMARK  144  A    between atoms: _334  and  _336
REMARK  145  A    between atoms: _336  and  _337
REMARK  146  A    between atoms: _336  and  _339
REMARK  147  A    between atoms: _339  and  _340
REMARK  148  A    between atoms: _343  and  _345
REMARK  149  A    between atoms: _345  and  _346
REMARK  150  A    between atoms: _345  and  _348
REMARK  151  A    between atoms: _348  and  _349
REMARK  152  A    between atoms: _352  and  _354
REMARK  153  A    between atoms: _354  and  _355
REMARK  154  A    between atoms: _358  and  _360
REMARK  155  A    between atoms: _360  and  _361
REMARK  156  A    between atoms: _360  and  _363
REMARK  157  A    between atoms: _363  and  _364
REMARK  158  A    between atoms: _367  and  _369
REMARK  159  A    between atoms: _369  and  _370
REMARK  160  A    between atoms: _369  and  _372
REMARK  161  A    between atoms: _372  and  _373
REMARK  162  A    between atoms: _376  and  _378
REMARK  163  A    between atoms: _378  and  _379
REMARK  164  A    between atoms: _378  and  _381
REMARK  165  A    between atoms: _381  and  _382
REMARK  166  A    between atoms: _382  and  _383
REMARK  167  A    between atoms: _383  and  _384
REMARK  168  A    between atoms: _393  and  _395
REMARK  169  A    between atoms: _395  and  _396
REMARK  170  A    between atoms: _395  and  _398
REMARK  171  A    between atoms: _398  and  _399
REMARK  172  A    between atoms: _399  and  _400
REMARK  173  A    between atoms: _405  and  _407
REMARK  174  A    between atoms: _407  and  _408
REMARK  175  A    between atoms: _407  and  _410
REMARK  176  A    between atoms: _410  and  _411
REMARK  177  A    between atoms: _411  and  _412
REMARK  178  A    between atoms: _417  and  _419
REMARK  179  A    between atoms: _419  and  _420
REMARK  180  A    between atoms: _419  and  _422
REMARK  181  A    between atoms: _422  and  _423
REMARK  182  A    between atoms: _433  and  _435
REMARK  183  A    between atoms: _435  and  _436
REMARK  184  A    between atoms: _435  and  _438
REMARK  185  A    between atoms: _438  and  _439
REMARK  186  A    between atoms: _442  and  _444
REMARK  187  A    between atoms: _444  and  _445
REMARK  188  A    between atoms: _444  and  _447
REMARK  189  A    between atoms: _447  and  _448
REMARK  190  A    between atoms: _451  and  _453
REMARK  191  A    between atoms: _453  and  _454
REMARK  192  A    between atoms: _453  and  _456
REMARK  193  A    between atoms: _456  and  _457
REMARK  194  A    between atoms: _457  and  _458
REMARK  195  A    between atoms: _458  and  _459
REMARK  196  A    between atoms: _459  and  _460
REMARK  197  A    between atoms: _464  and  _466
REMARK  198  A    between atoms: _466  and  _467
REMARK  199  A    between atoms: _466  and  _469
REMARK  200  A    between atoms: _469  and  _470
REMARK  201  A    between atoms: _470  and  _471
REMARK  202  A    between atoms: _471  and  _472
REMARK  203  A    between atoms: _481  and  _483
REMARK  204  A    between atoms: _483  and  _484
REMARK  205  A    between atoms: _483  and  _486
REMARK  206  A    between atoms: _486  and  _487
REMARK  207  A    between atoms: _490  and  _492
REMARK  208  A    between atoms: _492  and  _493
REMARK  209  A    between atoms: _492  and  _495
REMARK  210  A    between atoms: _498  and  _500
REMARK  211  A    between atoms: _500  and  _501
REMARK  212  A    between atoms: _500  and  _503
REMARK  213  A    between atoms: _503  and  _504
REMARK  214  A    between atoms: _504  and  _505
REMARK  215  A    between atoms: _508  and  _510
REMARK  216  A    between atoms: _510  and  _511
REMARK  217  A    between atoms: _510  and  _513
REMARK  218  A    between atoms: _515  and  _517
REMARK  219  A    between atoms: _517  and  _518
REMARK  220  A    between atoms: _517  and  _520
REMARK  221  A    between atoms: _520  and  _521
REMARK  222  A    between atoms: _521  and  _522
REMARK  223  A    between atoms: _524  and  _526
REMARK  224  A    between atoms: _526  and  _527
REMARK  225  A    between atoms: _526  and  _529
REMARK  226  A    between atoms: _529  and  _530
REMARK  227  A    between atoms: _532  and  _534
REMARK  228  A    between atoms: _534  and  _535
REMARK  229  A    between atoms: _534  and  _537
REMARK  230  A    between atoms: _537  and  _538
REMARK  231  A    between atoms: _541  and  _543
REMARK  232  A    between atoms: _543  and  _544
REMARK  233  A    between atoms: _543  and  _546
REMARK  234  A    between atoms: _546  and  _547
REMARK  235  A    between atoms: _547  and  _548
REMARK  236  A    between atoms: _548  and  _549
REMARK  237  A    between atoms: _558  and  _560
REMARK  238  A    between atoms: _560  and  _561
REMARK  239  A    between atoms: _560  and  _563
REMARK  240  A    between atoms: _566  and  _568
REMARK  241  A    between atoms: _568  and  _569
REMARK  242  A    between atoms: _568  and  _571
REMARK  243  A    between atoms: _571  and  _572
REMARK  244  A    between atoms: _577  and  _578
REMARK                            x       y       z     vdW  Elec       q    Type
REMARK                         _______ _______ _______ _____ _____    ______ ____
ROOT
ATOM      1  O   HOH     1      14.687  18.535  -0.132  0.00  0.00    +0.000 OA
ENDROOT
TORSDOF 0
REMARK  Name = ../refined-set-2016/3hk1/3hk1_pocket.pdb
REMARK  244 active torsions:
REMARK  status: ('A' for Active; 'I' for Inactive)
REMARK    1  A    between atoms: _1  and  _3
REMARK    2  A    between atoms: _3  and  _4
REMARK    3  A    between atoms: _3  and  _6
REMARK    4  A    between atoms: _6  and  _7
REMARK    5  A    between atoms: _10  and  _12
REMARK    6  A    between atoms: _12  and  _13
REMARK    7  A    between atoms: _12  and  _15
REMARK    8  A    between atoms: _18  and  _20
REMARK    9  A    between atoms: _20  and  _21
REMARK   10  A    between atoms: _20  and  _23
REMARK   11  A    between atoms: _23  and  _24
REMARK   12  A    between atoms: _26  and  _28
REMARK   13  A    between atoms: _28  and  _29
REMARK   14  A    between atoms: _28  and  _31
REMARK   15  A    between atoms: _31  and  _32
REMARK   16  A    between atoms: _34  and  _36
REMARK   17  A    between atoms: _36  and  _37
REMARK   18  A    between atoms: _36  and  _39
REMARK   19  A    between atoms: _39  and  _40
REMARK   20  A    between atoms: _46  and  _48
REMARK   21  A    between atoms: _48  and  _49
REMARK   22  A    between atoms: _48  and  _51
REMARK   23  A    between atoms: _51  and  _52
REMARK   24  A    between atoms: _57  and  _58
REMARK   25  A    between atoms: _60  and  _62
REMARK   26  A    between atoms: _62  and  _63
REMARK   27  A    between atoms: _62  and  _65
REMARK   28  A    between atoms: _65  and  _66
REMARK   29  A    between atoms: _66  and  _67
REMARK   30  A    between atoms: _69  and  _71
REMARK   31  A    between atoms: _71  and  _72
REMARK   32  A    between atoms: _71  and  _74
REMARK   33  A    between atoms: _74  and  _75
REMARK   34  A    between atoms: _75  and  _76
REMARK   35  A    between atoms: _76  and  _77
REMARK   36  A    between atoms: _77  and  _78
REMARK   37  A    between atoms: _82  and  _84
REMARK   38  A    between atoms: _84  and  _85
REMARK   39  A    between atoms: _84  and  _87
REMARK   40  A    between atoms: _87  and  _88
REMARK   41  A    between atoms: _88  and  _89
REMARK   42  A    between atoms: _92  and  _94
REMARK   43  A    between atoms: _94  and  _95
REMARK   44  A    between atoms: _94  and  _97
REMARK   45  A    between atoms: _100  and  _102
REMARK   46  A    between atoms: _102  and  _103
REMARK   47  A    between atoms: _105  and  _107
REMARK   48  A    between atoms: _107  and  _108
REMARK   49  A    between atoms: _107  and  _110
REMARK   50  A    between atoms: _113  and  _115
REMARK   51  A    between atoms: _115  and  _116
REMARK   52  A    between atoms: _118  and  _120
REMARK   53  A    between atoms: _120  and  _121
REMARK   54  A    between atoms: _124  and  _126
REMARK   55  A    between atoms: _126  and  _127
REMARK   56  A    between atoms: _126  and  _129
REMARK   57  A    between atoms: _129  and  _130
REMARK   58  A    between atoms: _133  and  _135
REMARK   59  A    between atoms: _135  and  _136
REMARK   60  A    between atoms: _135  and  _138
REMARK   61  A    between atoms: _138  and  _139
REMARK   62  A    between atoms: _139  and  _140
REMARK   63  A    between atoms: _140  and  _141
REMARK   64  A    between atoms: _150  and  _152
REMARK   65  A    between atoms: _152  and  _153
REMARK   66  A    between atoms: _152  and  _155
REMARK   67  A    between atoms: _155  and  _156
REMARK   68  A    between atoms: _156  and  _157
REMARK   69  A    between atoms: _157  and  _158
REMARK   70  A    between atoms: _158  and  _159
REMARK   71  A    between atoms: _163  and  _165
REMARK   72  A    between atoms: _165  and  _166
REMARK   73  A    between atoms: _165  and  _168
REMARK   74  A    between atoms: _171  and  _173
REMARK   75  A    between atoms: _173  and  _174
REMARK   76  A    between atoms: _177  and  _179
REMARK   77  A    between atoms: _179  and  _180
REMARK   78  A    between atoms: _182  and  _184
REMARK   79  A    between atoms: _184  and  _185
REMARK   80  A    between atoms: _184  and  _187
REMARK   81  A    between atoms: _187  and  _188
REMARK   82  A    between atoms: _188  and  _189
REMARK   83  A    between atoms: _191  and  _193
REMARK   84  A    between atoms: _193  and  _194
REMARK   85  A    between atoms: _197  and  _199
REMARK   86  A    between atoms: _199  and  _200
REMARK   87  A    between atoms: _199  and  _202
REMARK   88  A    between atoms: _202  and  _203
REMARK   89  A    between atoms: _203  and  _204
REMARK   90  A    between atoms: _204  and  _205
REMARK   91  A    between atoms: _205  and  _206
REMARK   92  A    between atoms: _211  and  _212
REMARK   93  A    between atoms: _217  and  _219
REMARK   94  A    between atoms: _219  and  _220
REMARK   95  A    between atoms: _219  and  _222
REMARK   96  A    between atoms: _222  and  _223
REMARK   97  A    between atoms: _228  and  _230
REMARK   98  A    between atoms: _230  and  _231
REMARK   99  A    between atoms: _230  and  _233
REMARK  100  A    between atoms: _233  and  _234
REMARK  101  A    between atoms: _234  and  _235
REMARK  102  A    between atoms: _237  and  _239
REMARK  103  A    between atoms: _239  and  _240
REMARK  104  A    between atoms: _239  and  _242
REMARK  105  A    between atoms: _242  and  _243
REMARK  106  A    between atoms: _246  and  _248
REMARK  107  A    between atoms: _248  and  _249
REMARK  108  A    between atoms: _248  and  _251
REMARK  109  A    between atoms: _251  and  _252
REMARK  110  A    between atoms: _252  and  _253
REMARK  111  A    between atoms: _253  and  _254
REMARK  112  A    between atoms: _263  and  _265
REMARK  113  A    between atoms: _265  and  _266
REMARK  114  A    between atoms: _265  and  _268
REMARK  115  A    between atoms: _268  and  _269
REMARK  116  A    between atoms: _271  and  _273
REMARK  117  A    between atoms: _273  and  _274
REMARK  118  A    between atoms: _273  and  _276
REMARK  119  A    between atoms: _276  and  _277
REMARK  120  A    between atoms: _277  and  _278
REMARK  121  A    between atoms: _281  and  _283
REMARK  122  A    between atoms: _283  and  _284
REMARK  123  A    between atoms: _283  and  _286
REMARK  124  A    between atoms: _286  and  _287
REMARK  125  A    between atoms: _289  and  _291
REMARK  126  A    between atoms: _291  and  _292
REMARK  127  A    between atoms: _291  and  _294
REMARK  128  A    between atoms: _294  and  _295
REMARK  129  A    between atoms: _298  and  _300
REMARK  130  A    between atoms: _300  and  _301
REMARK  131  A    between atoms: _300  and  _303
REMARK  132  A    between atoms: _303  and  _304
REMARK  133  A    between atoms: _310  and  _312
REMARK  134  A    between atoms: _312  and  _313
REMARK  135  A    between atoms: _312  and  _315
REMARK  136  A    between atoms: _315  and  _316
REMARK  137  A    between atoms: _316  and  _317
REMARK  138  A    between atoms: _317  and  _318
REMARK  139  A    between atoms: _318  and  _319
REMARK  140  A    between atoms: _323  and  _325
REMARK  141  A    between atoms: _325  and  _326
REMARK  142  A    between atoms: _325  and  _328
REMARK  143  A    between atoms: _328  and  _329
REMARK  144  A    between atoms: _334  and  _336
REMARK  145  A    between atoms: _336  and  _337
REMARK  146  A    between atoms: _336  and  _339
REMARK  147  A    between atoms: _339  and  _340
REMARK  148  A    between atoms: _343  and  _345
REMARK  149  A    between atoms: _345  and  _346
REMARK  150  A    between atoms: _345  and  _348
REMARK  151  A    between atoms: _348  and  _349
REMARK  152  A    between atoms: _352  and  _354
REMARK  153  A    between atoms: _354  and  _355
REMARK  154  A    between atoms: _358  and  _360
REMARK  155  A    between atoms: _360  and  _361
REMARK  156  A    between atoms: _360  and  _363
REMARK  157  A    between atoms: _363  and  _364
REMARK  158  A    between atoms: _367  and  _369
REMARK  159  A    between atoms: _369  and  _370
REMARK  160  A    between atoms: _369  and  _372
REMARK  161  A    between atoms: _372  and  _373
REMARK  162  A    between atoms: _376  and  _378
REMARK  163  A    between atoms: _378  and  _379
REMARK  164  A    between atoms: _378  and  _381
REMARK  165  A    between atoms: _381  and  _382
REMARK  166  A    between atoms: _382  and  _383
REMARK  167  A    between atoms: _383  and  _384
REMARK  168  A    between atoms: _393  and  _395
REMARK  169  A    between atoms: _395  and  _396
REMARK  170  A    between atoms: _395  and  _398
REMARK  171  A    between atoms: _398  and  _399
REMARK  172  A    between atoms: _399  and  _400
REMARK  173  A    between atoms: _405  and  _407
REMARK  174  A    between atoms: _407  and  _408
REMARK  175  A    between atoms: _407  and  _410
REMARK  176  A    between atoms: _410  and  _411
REMARK  177  A    between atoms: _411  and  _412
REMARK  178  A    between atoms: _417  and  _419
REMARK  179  A    between atoms: _419  and  _420
REMARK  180  A    between atoms: _419  and  _422
REMARK  181  A    between atoms: _422  and  _423
REMARK  182  A    between atoms: _433  and  _435
REMARK  183  A    between atoms: _435  and  _436
REMARK  184  A    between atoms: _435  and  _438
REMARK  185  A    between atoms: _438  and  _439
REMARK  186  A    between atoms: _442  and  _444
REMARK  187  A    between atoms: _444  and  _445
REMARK  188  A    between atoms: _444  and  _447
REMARK  189  A    between atoms: _447  and  _448
REMARK  190  A    between atoms: _451  and  _453
REMARK  191  A    between atoms: _453  and  _454
REMARK  192  A    between atoms: _453  and  _456
REMARK  193  A    between atoms: _456  and  _457
REMARK  194  A    between atoms: _457  and  _458
REMARK  195  A    between atoms: _458  and  _459
REMARK  196  A    between atoms: _459  and  _460
REMARK  197  A    between atoms: _464  and  _466
REMARK  198  A    between atoms: _466  and  _467
REMARK  199  A    between atoms: _466  and  _469
REMARK  200  A    between atoms: _469  and  _470
REMARK  201  A    between atoms: _470  and  _471
REMARK  202  A    between atoms: _471  and  _472
REMARK  203  A    between atoms: _481  and  _483
REMARK  204  A    between atoms: _483  and  _484
REMARK  205  A    between atoms: _483  and  _486
REMARK  206  A    between atoms: _486  and  _487
REMARK  207  A    between atoms: _490  and  _492
REMARK  208  A    between atoms: _492  and  _493
REMARK  209  A    between atoms: _492  and  _495
REMARK  210  A    between atoms: _498  and  _500
REMARK  211  A    between atoms: _500  and  _501
REMARK  212  A    between atoms: _500  and  _503
REMARK  213  A    between atoms: _503  and  _504
REMARK  214  A    between atoms: _504  and  _505
REMARK  215  A    between atoms: _508  and  _510
REMARK  216  A    between atoms: _510  and  _511
REMARK  217  A    between atoms: _510  and  _513
REMARK  218  A    between atoms: _515  and  _517
REMARK  219  A    between atoms: _517  and  _518
REMARK  220  A    between atoms: _517  and  _520
REMARK  221  A    between atoms: _520  and  _521
REMARK  222  A    between atoms: _521  and  _522
REMARK  223  A    between atoms: _524  and  _526
REMARK  224  A    between atoms: _526  and  _527
REMARK  225  A    between atoms: _526  and  _529
REMARK  226  A    between atoms: _529  and  _530
REMARK  227  A    between atoms: _532  and  _534
REMARK  228  A    between atoms: _534  and  _535
REMARK  229  A    between atoms: _534  and  _537
REMARK  230  A    between atoms: _537  and  _538
REMARK  231  A    between atoms: _541  and  _543
REMARK  232  A    between atoms: _543  and  _544
REMARK  233  A    between atoms: _543  and  _546
REMARK  234  A    between atoms: _546  and  _547
REMARK  235  A    between atoms: _547  and  _548
REMARK  236  A    between atoms: _548  and  _549
REMARK  237  A    between atoms: _558  and  _560
REMARK  238  A    between atoms: _560  and  _561
REMARK  239  A    between atoms: _560  and  _563
REMARK  240  A    between atoms: _566  and  _568
REMARK  241  A    between atoms: _568  and  _569
REMARK  242  A    between atoms: _568  and  _571
REMARK  243  A    between atoms: _571  and  _572
REMARK  244  A    between atoms: _577  and  _578
REMARK                            x       y       z     vdW  Elec       q    Type
REMARK                         _______ _______ _______ _____ _____    ______ ____
ROOT
ATOM      1  O   HOH     1      11.992  20.866 -15.938  0.00  0.00    +0.000 OA
ENDROOT
TORSDOF 0
REMARK  Name = ../refined-set-2016/3hk1/3hk1_pocket.pdb
REMARK  244 active torsions:
REMARK  status: ('A' for Active; 'I' for Inactive)
REMARK    1  A    between atoms: _1  and  _3
REMARK    2  A    between atoms: _3  and  _4
REMARK    3  A    between atoms: _3  and  _6
REMARK    4  A    between atoms: _6  and  _7
REMARK    5  A    between atoms: _10  and  _12
REMARK    6  A    between atoms: _12  and  _13
REMARK    7  A    between atoms: _12  and  _15
REMARK    8  A    between atoms: _18  and  _20
REMARK    9  A    between atoms: _20  and  _21
REMARK   10  A    between atoms: _20  and  _23
REMARK   11  A    between atoms: _23  and  _24
REMARK   12  A    between atoms: _26  and  _28
REMARK   13  A    between atoms: _28  and  _29
REMARK   14  A    between atoms: _28  and  _31
REMARK   15  A    between atoms: _31  and  _32
REMARK   16  A    between atoms: _34  and  _36
REMARK   17  A    between atoms: _36  and  _37
REMARK   18  A    between atoms: _36  and  _39
REMARK   19  A    between atoms: _39  and  _40
REMARK   20  A    between atoms: _46  and  _48
REMARK   21  A    between atoms: _48  and  _49
REMARK   22  A    between atoms: _48  and  _51
REMARK   23  A    between atoms: _51  and  _52
REMARK   24  A    between atoms: _57  and  _58
REMARK   25  A    between atoms: _60  and  _62
REMARK   26  A    between atoms: _62  and  _63
REMARK   27  A    between atoms: _62  and  _65
REMARK   28  A    between atoms: _65  and  _66
REMARK   29  A    between atoms: _66  and  _67
REMARK   30  A    between atoms: _69  and  _71
REMARK   31  A    between atoms: _71  and  _72
REMARK   32  A    between atoms: _71  and  _74
REMARK   33  A    between atoms: _74  and  _75
REMARK   34  A    between atoms: _75  and  _76
REMARK   35  A    between atoms: _76  and  _77
REMARK   36  A    between atoms: _77  and  _78
REMARK   37  A    between atoms: _82  and  _84
REMARK   38  A    between atoms: _84  and  _85
REMARK   39  A    between atoms: _84  and  _87
REMARK   40  A    between atoms: _87  and  _88
REMARK   41  A    between atoms: _88  and  _89
REMARK   42  A    between atoms: _92  and  _94
REMARK   43  A    between atoms: _94  and  _95
REMARK   44  A    between atoms: _94  and  _97
REMARK   45  A    between atoms: _100  and  _102
REMARK   46  A    between atoms: _102  and  _103
REMARK   47  A    between atoms: _105  and  _107
REMARK   48  A    between atoms: _107  and  _108
REMARK   49  A    between atoms: _107  and  _110
REMARK   50  A    between atoms: _113  and  _115
REMARK   51  A    between atoms: _115  and  _116
REMARK   52  A    between atoms: _118  and  _120
REMARK   53  A    between atoms: _120  and  _121
REMARK   54  A    between atoms: _124  and  _126
REMARK   55  A    between atoms: _126  and  _127
REMARK   56  A    between atoms: _126  and  _129
REMARK   57  A    between atoms: _129  and  _130
REMARK   58  A    between atoms: _133  and  _135
REMARK   59  A    between atoms: _135  and  _136
REMARK   60  A    between atoms: _135  and  _138
REMARK   61  A    between atoms: _138  and  _139
REMARK   62  A    between atoms: _139  and  _140
REMARK   63  A    between atoms: _140  and  _141
REMARK   64  A    between atoms: _150  and  _152
REMARK   65  A    between atoms: _152  and  _153
REMARK   66  A    between atoms: _152  and  _155
REMARK   67  A    between atoms: _155  and  _156
REMARK   68  A    between atoms: _156  and  _157
REMARK   69  A    between atoms: _157  and  _158
REMARK   70  A    between atoms: _158  and  _159
REMARK   71  A    between atoms: _163  and  _165
REMARK   72  A    between atoms: _165  and  _166
REMARK   73  A    between atoms: _165  and  _168
REMARK   74  A    between atoms: _171  and  _173
REMARK   75  A    between atoms: _173  and  _174
REMARK   76  A    between atoms: _177  and  _179
REMARK   77  A    between atoms: _179  and  _180
REMARK   78  A    between atoms: _182  and  _184
REMARK   79  A    between atoms: _184  and  _185
REMARK   80  A    between atoms: _184  and  _187
REMARK   81  A    between atoms: _187  and  _188
REMARK   82  A    between atoms: _188  and  _189
REMARK   83  A    between atoms: _191  and  _193
REMARK   84  A    between atoms: _193  and  _194
REMARK   85  A    between atoms: _197  and  _199
REMARK   86  A    between atoms: _199  and  _200
REMARK   87  A    between atoms: _199  and  _202
REMARK   88  A    between atoms: _202  and  _203
REMARK   89  A    between atoms: _203  and  _204
REMARK   90  A    between atoms: _204  and  _205
REMARK   91  A    between atoms: _205  and  _206
REMARK   92  A    between atoms: _211  and  _212
REMARK   93  A    between atoms: _217  and  _219
REMARK   94  A    between atoms: _219  and  _220
REMARK   95  A    between atoms: _219  and  _222
REMARK   96  A    between atoms: _222  and  _223
REMARK   97  A    between atoms: _228  and  _230
REMARK   98  A    between atoms: _230  and  _231
REMARK   99  A    between atoms: _230  and  _233
REMARK  100  A    between atoms: _233  and  _234
REMARK  101  A    between atoms: _234  and  _235
REMARK  102  A    between atoms: _237  and  _239
REMARK  103  A    between atoms: _239  and  _240
REMARK  104  A    between atoms: _239  and  _242
REMARK  105  A    between atoms: _242  and  _243
REMARK  106  A    between atoms: _246  and  _248
REMARK  107  A    between atoms: _248  and  _249
REMARK  108  A    between atoms: _248  and  _251
REMARK  109  A    between atoms: _251  and  _252
REMARK  110  A    between atoms: _252  and  _253
REMARK  111  A    between atoms: _253  and  _254
REMARK  112  A    between atoms: _263  and  _265
REMARK  113  A    between atoms: _265  and  _266
REMARK  114  A    between atoms: _265  and  _268
REMARK  115  A    between atoms: _268  and  _269
REMARK  116  A    between atoms: _271  and  _273
REMARK  117  A    between atoms: _273  and  _274
REMARK  118  A    between atoms: _273  and  _276
REMARK  119  A    between atoms: _276  and  _277
REMARK  120  A    between atoms: _277  and  _278
REMARK  121  A    between atoms: _281  and  _283
REMARK  122  A    between atoms: _283  and  _284
REMARK  123  A    between atoms: _283  and  _286
REMARK  124  A    between atoms: _286  and  _287
REMARK  125  A    between atoms: _289  and  _291
REMARK  126  A    between atoms: _291  and  _292
REMARK  127  A    between atoms: _291  and  _294
REMARK  128  A    between atoms: _294  and  _295
REMARK  129  A    between atoms: _298  and  _300
REMARK  130  A    between atoms: _300  and  _301
REMARK  131  A    between atoms: _300  and  _303
REMARK  132  A    between atoms: _303  and  _304
REMARK  133  A    between atoms: _310  and  _312
REMARK  134  A    between atoms: _312  and  _313
REMARK  135  A    between atoms: _312  and  _315
REMARK  136  A    between atoms: _315  and  _316
REMARK  137  A    between atoms: _316  and  _317
REMARK  138  A    between atoms: _317  and  _318
REMARK  139  A    between atoms: _318  and  _319
REMARK  140  A    between atoms: _323  and  _325
REMARK  141  A    between atoms: _325  and  _326
REMARK  142  A    between atoms: _325  and  _328
REMARK  143  A    between atoms: _328  and  _329
REMARK  144  A    between atoms: _334  and  _336
REMARK  145  A    between atoms: _336  and  _337
REMARK  146  A    between atoms: _336  and  _339
REMARK  147  A    between atoms: _339  and  _340
REMARK  148  A    between atoms: _343  and  _345
REMARK  149  A    between atoms: _345  and  _346
REMARK  150  A    between atoms: _345  and  _348
REMARK  151  A    between atoms: _348  and  _349
REMARK  152  A    between atoms: _352  and  _354
REMARK  153  A    between atoms: _354  and  _355
REMARK  154  A    between atoms: _358  and  _360
REMARK  155  A    between atoms: _360  and  _361
REMARK  156  A    between atoms: _360  and  _363
REMARK  157  A    between atoms: _363  and  _364
REMARK  158  A    between atoms: _367  and  _369
REMARK  159  A    between atoms: _369  and  _370
REMARK  160  A    between atoms: _369  and  _372
REMARK  161  A    between atoms: _372  and  _373
REMARK  162  A    between atoms: _376  and  _378
REMARK  163  A    between atoms: _378  and  _379
REMARK  164  A    between atoms: _378  and  _381
REMARK  165  A    between atoms: _381  and  _382
REMARK  166  A    between atoms: _382  and  _383
REMARK  167  A    between atoms: _383  and  _384
REMARK  168  A    between atoms: _393  and  _395
REMARK  169  A    between atoms: _395  and  _396
REMARK  170  A    between atoms: _395  and  _398
REMARK  171  A    between atoms: _398  and  _399
REMARK  172  A    between atoms: _399  and  _400
REMARK  173  A    between atoms: _405  and  _407
REMARK  174  A    between atoms: _407  and  _408
REMARK  175  A    between atoms: _407  and  _410
REMARK  176  A    between atoms: _410  and  _411
REMARK  177  A    between atoms: _411  and  _412
REMARK  178  A    between atoms: _417  and  _419
REMARK  179  A    between atoms: _419  and  _420
REMARK  180  A    between atoms: _419  and  _422
REMARK  181  A    between atoms: _422  and  _423
REMARK  182  A    between atoms: _433  and  _435
REMARK  183  A    between atoms: _435  and  _436
REMARK  184  A    between atoms: _435  and  _438
REMARK  185  A    between atoms: _438  and  _439
REMARK  186  A    between atoms: _442  and  _444
REMARK  187  A    between atoms: _444  and  _445
REMARK  188  A    between atoms: _444  and  _447
REMARK  189  A    between atoms: _447  and  _448
REMARK  190  A    between atoms: _451  and  _453
REMARK  191  A    between atoms: _453  and  _454
REMARK  192  A    between atoms: _453  and  _456
REMARK  193  A    between atoms: _456  and  _457
REMARK  194  A    between atoms: _457  and  _458
REMARK  195  A    between atoms: _458  and  _459
REMARK  196  A    between atoms: _459  and  _460
REMARK  197  A    between atoms: _464  and  _466
REMARK  198  A    between atoms: _466  and  _467
REMARK  199  A    between atoms: _466  and  _469
REMARK  200  A    between atoms: _469  and  _470
REMARK  201  A    between atoms: _470  and  _471
REMARK  202  A    between atoms: _471  and  _472
REMARK  203  A    between atoms: _481  and  _483
REMARK  204  A    between atoms: _483  and  _484
REMARK  205  A    between atoms: _483  and  _486
REMARK  206  A    between atoms: _486  and  _487
REMARK  207  A    between atoms: _490  and  _492
REMARK  208  A    between atoms: _492  and  _493
REMARK  209  A    between atoms: _492  and  _495
REMARK  210  A    between atoms: _498  and  _500
REMARK  211  A    between atoms: _500  and  _501
REMARK  212  A    between atoms: _500  and  _503
REMARK  213  A    between atoms: _503  and  _504
REMARK  214  A    between atoms: _504  and  _505
REMARK  215  A    between atoms: _508  and  _510
REMARK  216  A    between atoms: _510  and  _511
REMARK  217  A    between atoms: _510  and  _513
REMARK  218  A    between atoms: _515  and  _517
REMARK  219  A    between atoms: _517  and  _518
REMARK  220  A    between atoms: _517  and  _520
REMARK  221  A    between atoms: _520  and  _521
REMARK  222  A    between atoms: _521  and  _522
REMARK  223  A    between atoms: _524  and  _526
REMARK  224  A    between atoms: _526  and  _527
REMARK  225  A    between atoms: _526  and  _529
REMARK  226  A    between atoms: _529  and  _530
REMARK  227  A    between atoms: _532  and  _534
REMARK  228  A    between atoms: _534  and  _535
REMARK  229  A    between atoms: _534  and  _537
REMARK  230  A    between atoms: _537  and  _538
REMARK  231  A    between atoms: _541  and  _543
REMARK  232  A    between atoms: _543  and  _544
REMARK  233  A    between atoms: _543  and  _546
REMARK  234  A    between atoms: _546  and  _547
REMARK  235  A    between atoms: _547  and  _548
REMARK  236  A    between atoms: _548  and  _549
REMARK  237  A    between atoms: _558  and  _560
REMARK  238  A    between atoms: _560  and  _561
REMARK  239  A    between atoms: _560  and  _563
REMARK  240  A    between atoms: _566  and  _568
REMARK  241  A    between atoms: _568  and  _569
REMARK  242  A    between atoms: _568  and  _571
REMARK  243  A    between atoms: _571  and  _572
REMARK  244  A    between atoms: _577  and  _578
REMARK                            x       y       z     vdW  Elec       q    Type
REMARK                         _______ _______ _______ _____ _____    ______ ____
ROOT
ATOM      1  O   HOH     1       8.686  20.677  -8.463  0.00  0.00    +0.000 OA
ENDROOT
TORSDOF 0
