REMARK  Name = ../refined-set-2016/3qfz/3qfz_pocket.pdb
REMARK  179 active torsions:
REMARK  status: ('A' for Active; 'I' for Inactive)
REMARK    1  A    between atoms: _1  and  _3
REMARK    2  A    between atoms: _3  and  _4
REMARK    3  A    between atoms: _3  and  _6
REMARK    4  A    between atoms: _6  and  _7
REMARK    5  A    between atoms: _9  and  _11
REMARK    6  A    between atoms: _11  and  _12
REMARK    7  A    between atoms: _11  and  _14
REMARK    8  A    between atoms: _14  and  _15
REMARK    9  A    between atoms: _15  and  _16
REMARK   10  A    between atoms: _16  and  _17
REMARK   11  A    between atoms: _26  and  _28
REMARK   12  A    between atoms: _28  and  _29
REMARK   13  A    between atoms: _28  and  _31
REMARK   14  A    between atoms: _31  and  _32
REMARK   15  A    between atoms: _34  and  _36
REMARK   16  A    between atoms: _36  and  _37
REMARK   17  A    between atoms: _36  and  _39
REMARK   18  A    between atoms: _39  and  _40
REMARK   19  A    between atoms: _40  and  _41
REMARK   20  A    between atoms: _44  and  _46
REMARK   21  A    between atoms: _46  and  _47
REMARK   22  A    between atoms: _46  and  _49
REMARK   23  A    between atoms: _49  and  _50
REMARK   24  A    between atoms: _50  and  _51
REMARK   25  A    between atoms: _51  and  _52
REMARK   26  A    between atoms: _61  and  _63
REMARK   27  A    between atoms: _63  and  _64
REMARK   28  A    between atoms: _66  and  _68
REMARK   29  A    between atoms: _68  and  _69
REMARK   30  A    between atoms: _68  and  _71
REMARK   31  A    between atoms: _71  and  _72
REMARK   32  A    between atoms: _78  and  _80
REMARK   33  A    between atoms: _80  and  _81
REMARK   34  A    between atoms: _80  and  _83
REMARK   35  A    between atoms: _84  and  _85
REMARK   36  A    between atoms: _85  and  _86
REMARK   37  A    between atoms: _95  and  _97
REMARK   38  A    between atoms: _97  and  _98
REMARK   39  A    between atoms: _97  and  _100
REMARK   40  A    between atoms: _100  and  _101
REMARK   41  A    between atoms: _104  and  _106
REMARK   42  A    between atoms: _106  and  _107
REMARK   43  A    between atoms: _106  and  _109
REMARK   44  A    between atoms: _109  and  _110
REMARK   45  A    between atoms: _112  and  _114
REMARK   46  A    between atoms: _114  and  _115
REMARK   47  A    between atoms: _114  and  _117
REMARK   48  A    between atoms: _117  and  _118
REMARK   49  A    between atoms: _118  and  _119
REMARK   50  A    between atoms: _124  and  _126
REMARK   51  A    between atoms: _126  and  _127
REMARK   52  A    between atoms: _126  and  _129
REMARK   53  A    between atoms: _129  and  _130
REMARK   54  A    between atoms: _135  and  _137
REMARK   55  A    between atoms: _137  and  _138
REMARK   56  A    between atoms: _137  and  _140
REMARK   57  A    between atoms: _140  and  _141
REMARK   58  A    between atoms: _144  and  _146
REMARK   59  A    between atoms: _146  and  _147
REMARK   60  A    between atoms: _146  and  _149
REMARK   61  A    between atoms: _149  and  _150
REMARK   62  A    between atoms: _156  and  _158
REMARK   63  A    between atoms: _158  and  _159
REMARK   64  A    between atoms: _158  and  _161
REMARK   65  A    between atoms: _161  and  _162
REMARK   66  A    between atoms: _165  and  _167
REMARK   67  A    between atoms: _167  and  _168
REMARK   68  A    between atoms: _167  and  _170
REMARK   69  A    between atoms: _170  and  _171
REMARK   70  A    between atoms: _174  and  _176
REMARK   71  A    between atoms: _176  and  _177
REMARK   72  A    between atoms: _176  and  _179
REMARK   73  A    between atoms: _179  and  _180
REMARK   74  A    between atoms: _190  and  _192
REMARK   75  A    between atoms: _192  and  _193
REMARK   76  A    between atoms: _196  and  _198
REMARK   77  A    between atoms: _198  and  _199
REMARK   78  A    between atoms: _198  and  _201
REMARK   79  A    between atoms: _201  and  _202
REMARK   80  A    between atoms: _205  and  _207
REMARK   81  A    between atoms: _207  and  _208
REMARK   82  A    between atoms: _207  and  _210
REMARK   83  A    between atoms: _210  and  _211
REMARK   84  A    between atoms: _221  and  _223
REMARK   85  A    between atoms: _223  and  _224
REMARK   86  A    between atoms: _223  and  _226
REMARK   87  A    between atoms: _226  and  _227
REMARK   88  A    between atoms: _232  and  _234
REMARK   89  A    between atoms: _234  and  _235
REMARK   90  A    between atoms: _234  and  _237
REMARK   91  A    between atoms: _237  and  _238
REMARK   92  A    between atoms: _241  and  _243
REMARK   93  A    between atoms: _243  and  _244
REMARK   94  A    between atoms: _243  and  _246
REMARK   95  A    between atoms: _248  and  _250
REMARK   96  A    between atoms: _250  and  _251
REMARK   97  A    between atoms: _250  and  _253
REMARK   98  A    between atoms: _253  and  _254
REMARK   99  A    between atoms: _257  and  _259
REMARK  100  A    between atoms: _259  and  _260
REMARK  101  A    between atoms: _259  and  _262
REMARK  102  A    between atoms: _262  and  _263
REMARK  103  A    between atoms: _268  and  _270
REMARK  104  A    between atoms: _270  and  _271
REMARK  105  A    between atoms: _270  and  _273
REMARK  106  A    between atoms: _273  and  _274
REMARK  107  A    between atoms: _274  and  _275
REMARK  108  A    between atoms: _280  and  _282
REMARK  109  A    between atoms: _282  and  _283
REMARK  110  A    between atoms: _282  and  _285
REMARK  111  A    between atoms: _285  and  _286
REMARK  112  A    between atoms: _286  and  _287
REMARK  113  A    between atoms: _287  and  _288
REMARK  114  A    between atoms: _297  and  _299
REMARK  115  A    between atoms: _299  and  _300
REMARK  116  A    between atoms: _299  and  _302
REMARK  117  A    between atoms: _302  and  _303
REMARK  118  A    between atoms: _303  and  _304
REMARK  119  A    between atoms: _307  and  _309
REMARK  120  A    between atoms: _309  and  _310
REMARK  121  A    between atoms: _309  and  _312
REMARK  122  A    between atoms: _312  and  _313
REMARK  123  A    between atoms: _316  and  _318
REMARK  124  A    between atoms: _318  and  _319
REMARK  125  A    between atoms: _318  and  _321
REMARK  126  A    between atoms: _321  and  _322
REMARK  127  A    between atoms: _327  and  _328
REMARK  128  A    between atoms: _330  and  _332
REMARK  129  A    between atoms: _332  and  _333
REMARK  130  A    between atoms: _332  and  _335
REMARK  131  A    between atoms: _335  and  _336
REMARK  132  A    between atoms: _336  and  _337
REMARK  133  A    between atoms: _337  and  _338
REMARK  134  A    between atoms: _338  and  _339
REMARK  135  A    between atoms: _343  and  _345
REMARK  136  A    between atoms: _345  and  _346
REMARK  137  A    between atoms: _345  and  _348
REMARK  138  A    between atoms: _348  and  _349
REMARK  139  A    between atoms: _349  and  _350
REMARK  140  A    between atoms: _353  and  _355
REMARK  141  A    between atoms: _355  and  _356
REMARK  142  A    between atoms: _355  and  _358
REMARK  143  A    between atoms: _358  and  _359
REMARK  144  A    between atoms: _365  and  _367
REMARK  145  A    between atoms: _367  and  _368
REMARK  146  A    between atoms: _367  and  _370
REMARK  147  A    between atoms: _370  and  _371
REMARK  148  A    between atoms: _376  and  _378
REMARK  149  A    between atoms: _378  and  _379
REMARK  150  A    between atoms: _378  and  _381
REMARK  151  A    between atoms: _381  and  _382
REMARK  152  A    between atoms: _387  and  _389
REMARK  153  A    between atoms: _389  and  _390
REMARK  154  A    between atoms: _389  and  _392
REMARK  155  A    between atoms: _392  and  _393
REMARK  156  A    between atoms: _403  and  _405
REMARK  157  A    between atoms: _405  and  _406
REMARK  158  A    between atoms: _405  and  _408
REMARK  159  A    between atoms: _408  and  _409
REMARK  160  A    between atoms: _409  and  _410
REMARK  161  A    between atoms: _415  and  _417
REMARK  162  A    between atoms: _417  and  _418
REMARK  163  A    between atoms: _417  and  _420
REMARK  164  A    between atoms: _420  and  _421
REMARK  165  A    between atoms: _426  and  _428
REMARK  166  A    between atoms: _428  and  _429
REMARK  167  A    between atoms: _428  and  _431
REMARK  168  A    between atoms: _431  and  _432
REMARK  169  A    between atoms: _435  and  _437
REMARK  170  A    between atoms: _437  and  _438
REMARK  171  A    between atoms: _437  and  _440
REMARK  172  A    between atoms: _440  and  _441
REMARK  173  A    between atoms: _444  and  _446
REMARK  174  A    between atoms: _446  and  _447
REMARK  175  A    between atoms: _449  and  _451
REMARK  176  A    between atoms: _451  and  _452
REMARK  177  A    between atoms: _451  and  _454
REMARK  178  A    between atoms: _454  and  _455
REMARK  179  A    between atoms: _455  and  _456
REMARK                            x       y       z     vdW  Elec       q    Type
REMARK                         _______ _______ _______ _____ _____    ______ ____
ROOT
ATOM      1  CA  ARG A   2      13.585  50.826  79.955  0.00  0.00    +0.149 C 
ENDROOT
BRANCH   1   3
ATOM      2  C   SER A   1      15.896  51.367  80.379  0.00  0.00    +0.241 C 
ATOM      3  N   ARG A   2      14.620  51.446  80.756  0.00  0.00    -0.297 N 
ATOM      4  H   ARG A   2      14.367  51.954  81.627  0.00  0.00    +0.150 HD
ATOM      5  O   SER A   1      16.260  50.638  79.425  0.00  0.00    -0.274 OA
BRANCH   2   6
ATOM      6  CA  SER A   1      16.935  52.212  81.153  0.00  0.00    +0.174 C 
BRANCH   6   7
ATOM      7  N   SER A   1      17.577  53.156  80.232  0.00  0.00    -0.236 NA
ATOM      8  H   SER A   1      18.615  53.190  80.188  0.00  0.00    +0.142 HD
ENDBRANCH   6   7
BRANCH   6   9
ATOM      9  CB  SER A   1      16.322  52.945  82.353  0.00  0.00    +0.163 C 
BRANCH   9  10
ATOM     10  OG  SER A   1      16.206  52.050  83.469  0.00  0.00    -0.380 OA
ATOM     11  H   SER A   1      17.104  51.714  83.716  0.00  0.00    +0.211 HD
ENDBRANCH   9  10
ENDBRANCH   6   9
ENDBRANCH   2   6
ENDBRANCH   1   3
BRANCH   1  12
ATOM     12  C   ARG A   2      12.505  51.827  79.494  0.00  0.00    +0.241 C 
ATOM     13  N   SER A   3      12.804  53.132  79.350  0.00  0.00    -0.296 N 
ATOM     14  H   SER A   3      13.784  53.467  79.443  0.00  0.00    +0.150 HD
ATOM     15  O   ARG A   2      11.369  51.408  79.298  0.00  0.00    -0.273 OA
BRANCH  13  16
ATOM     16  CA  SER A   3      11.698  54.083  79.054  0.00  0.00    +0.166 C 
BRANCH  16  17
ATOM     17  C   SER A   3      11.235  54.093  77.653  0.00  0.00    +0.229 C 
ATOM     18  O   SER A   3      10.014  54.124  77.452  0.00  0.00    -0.286 OA
ENDBRANCH  16  17
BRANCH  16  19
ATOM     19  CB  SER A   3      11.977  55.556  79.395  0.00  0.00    +0.165 C 
BRANCH  19  20
ATOM     20  OG  SER A   3      13.186  55.904  78.778  0.00  0.00    -0.380 OA
ATOM     21  H   SER A   3      13.397  56.850  78.978  0.00  0.00    +0.211 HD
ENDBRANCH  19  20
ENDBRANCH  16  19
ENDBRANCH  13  16
ENDBRANCH   1  12
BRANCH   1  22
ATOM     22  CB  ARG A   2      12.888  49.685  80.730  0.00  0.00    +0.033 C 
BRANCH  22  23
ATOM     23  CG  ARG A   2      13.790  48.732  81.447  0.00  0.00    +0.045 C 
BRANCH  23  24
ATOM     24  CD  ARG A   2      14.676  47.908  80.507  0.00  0.00    +0.174 C 
BRANCH  24  25
ATOM     25  NE  ARG A   2      15.671  47.157  81.260  0.00  0.00    -0.265 N 
ATOM     26  HE  ARG A   2      15.357  46.278  81.718  0.00  0.00    +0.259 HD
ATOM     27  CZ  ARG A   2      16.951  47.501  81.412  0.00  0.00    +0.342 C 
ATOM     28  NH2 ARG A   2      17.740  46.736  82.169  0.00  0.00    -0.292 N 
ATOM     29 HH21 ARG A   2      17.354  45.887  82.629  0.00  0.00    +0.255 HD
ATOM     30 HH22 ARG A   2      18.740  46.989  82.299  0.00  0.00    +0.255 HD
ATOM     31  NH1 ARG A   2      17.456  48.582  80.803  0.00  0.00    -0.292 N 
ATOM     32 HH11 ARG A   2      18.457  48.833  80.935  0.00  0.00    +0.255 HD
ATOM     33 HH12 ARG A   2      16.847  49.170  80.199  0.00  0.00    +0.255 HD
ENDBRANCH  24  25
ENDBRANCH  23  24
ENDBRANCH  22  23
ENDBRANCH   1  22
TORSDOF 14
REMARK  Name = ../refined-set-2016/3qfz/3qfz_pocket.pdb
REMARK  179 active torsions:
REMARK  status: ('A' for Active; 'I' for Inactive)
REMARK    1  A    between atoms: _1  and  _3
REMARK    2  A    between atoms: _3  and  _4
REMARK    3  A    between atoms: _3  and  _6
REMARK    4  A    between atoms: _6  and  _7
REMARK    5  A    between atoms: _9  and  _11
REMARK    6  A    between atoms: _11  and  _12
REMARK    7  A    between atoms: _11  and  _14
REMARK    8  A    between atoms: _14  and  _15
REMARK    9  A    between atoms: _15  and  _16
REMARK   10  A    between atoms: _16  and  _17
REMARK   11  A    between atoms: _26  and  _28
REMARK   12  A    between atoms: _28  and  _29
REMARK   13  A    between atoms: _28  and  _31
REMARK   14  A    between atoms: _31  and  _32
REMARK   15  A    between atoms: _34  and  _36
REMARK   16  A    between atoms: _36  and  _37
REMARK   17  A    between atoms: _36  and  _39
REMARK   18  A    between atoms: _39  and  _40
REMARK   19  A    between atoms: _40  and  _41
REMARK   20  A    between atoms: _44  and  _46
REMARK   21  A    between atoms: _46  and  _47
REMARK   22  A    between atoms: _46  and  _49
REMARK   23  A    between atoms: _49  and  _50
REMARK   24  A    between atoms: _50  and  _51
REMARK   25  A    between atoms: _51  and  _52
REMARK   26  A    between atoms: _61  and  _63
REMARK   27  A    between atoms: _63  and  _64
REMARK   28  A    between atoms: _66  and  _68
REMARK   29  A    between atoms: _68  and  _69
REMARK   30  A    between atoms: _68  and  _71
REMARK   31  A    between atoms: _71  and  _72
REMARK   32  A    between atoms: _78  and  _80
REMARK   33  A    between atoms: _80  and  _81
REMARK   34  A    between atoms: _80  and  _83
REMARK   35  A    between atoms: _84  and  _85
REMARK   36  A    between atoms: _85  and  _86
REMARK   37  A    between atoms: _95  and  _97
REMARK   38  A    between atoms: _97  and  _98
REMARK   39  A    between atoms: _97  and  _100
REMARK   40  A    between atoms: _100  and  _101
REMARK   41  A    between atoms: _104  and  _106
REMARK   42  A    between atoms: _106  and  _107
REMARK   43  A    between atoms: _106  and  _109
REMARK   44  A    between atoms: _109  and  _110
REMARK   45  A    between atoms: _112  and  _114
REMARK   46  A    between atoms: _114  and  _115
REMARK   47  A    between atoms: _114  and  _117
REMARK   48  A    between atoms: _117  and  _118
REMARK   49  A    between atoms: _118  and  _119
REMARK   50  A    between atoms: _124  and  _126
REMARK   51  A    between atoms: _126  and  _127
REMARK   52  A    between atoms: _126  and  _129
REMARK   53  A    between atoms: _129  and  _130
REMARK   54  A    between atoms: _135  and  _137
REMARK   55  A    between atoms: _137  and  _138
REMARK   56  A    between atoms: _137  and  _140
REMARK   57  A    between atoms: _140  and  _141
REMARK   58  A    between atoms: _144  and  _146
REMARK   59  A    between atoms: _146  and  _147
REMARK   60  A    between atoms: _146  and  _149
REMARK   61  A    between atoms: _149  and  _150
REMARK   62  A    between atoms: _156  and  _158
REMARK   63  A    between atoms: _158  and  _159
REMARK   64  A    between atoms: _158  and  _161
REMARK   65  A    between atoms: _161  and  _162
REMARK   66  A    between atoms: _165  and  _167
REMARK   67  A    between atoms: _167  and  _168
REMARK   68  A    between atoms: _167  and  _170
REMARK   69  A    between atoms: _170  and  _171
REMARK   70  A    between atoms: _174  and  _176
REMARK   71  A    between atoms: _176  and  _177
REMARK   72  A    between atoms: _176  and  _179
REMARK   73  A    between atoms: _179  and  _180
REMARK   74  A    between atoms: _190  and  _192
REMARK   75  A    between atoms: _192  and  _193
REMARK   76  A    between atoms: _196  and  _198
REMARK   77  A    between atoms: _198  and  _199
REMARK   78  A    between atoms: _198  and  _201
REMARK   79  A    between atoms: _201  and  _202
REMARK   80  A    between atoms: _205  and  _207
REMARK   81  A    between atoms: _207  and  _208
REMARK   82  A    between atoms: _207  and  _210
REMARK   83  A    between atoms: _210  and  _211
REMARK   84  A    between atoms: _221  and  _223
REMARK   85  A    between atoms: _223  and  _224
REMARK   86  A    between atoms: _223  and  _226
REMARK   87  A    between atoms: _226  and  _227
REMARK   88  A    between atoms: _232  and  _234
REMARK   89  A    between atoms: _234  and  _235
REMARK   90  A    between atoms: _234  and  _237
REMARK   91  A    between atoms: _237  and  _238
REMARK   92  A    between atoms: _241  and  _243
REMARK   93  A    between atoms: _243  and  _244
REMARK   94  A    between atoms: _243  and  _246
REMARK   95  A    between atoms: _248  and  _250
REMARK   96  A    between atoms: _250  and  _251
REMARK   97  A    between atoms: _250  and  _253
REMARK   98  A    between atoms: _253  and  _254
REMARK   99  A    between atoms: _257  and  _259
REMARK  100  A    between atoms: _259  and  _260
REMARK  101  A    between atoms: _259  and  _262
REMARK  102  A    between atoms: _262  and  _263
REMARK  103  A    between atoms: _268  and  _270
REMARK  104  A    between atoms: _270  and  _271
REMARK  105  A    between atoms: _270  and  _273
REMARK  106  A    between atoms: _273  and  _274
REMARK  107  A    between atoms: _274  and  _275
REMARK  108  A    between atoms: _280  and  _282
REMARK  109  A    between atoms: _282  and  _283
REMARK  110  A    between atoms: _282  and  _285
REMARK  111  A    between atoms: _285  and  _286
REMARK  112  A    between atoms: _286  and  _287
REMARK  113  A    between atoms: _287  and  _288
REMARK  114  A    between atoms: _297  and  _299
REMARK  115  A    between atoms: _299  and  _300
REMARK  116  A    between atoms: _299  and  _302
REMARK  117  A    between atoms: _302  and  _303
REMARK  118  A    between atoms: _303  and  _304
REMARK  119  A    between atoms: _307  and  _309
REMARK  120  A    between atoms: _309  and  _310
REMARK  121  A    between atoms: _309  and  _312
REMARK  122  A    between atoms: _312  and  _313
REMARK  123  A    between atoms: _316  and  _318
REMARK  124  A    between atoms: _318  and  _319
REMARK  125  A    between atoms: _318  and  _321
REMARK  126  A    between atoms: _321  and  _322
REMARK  127  A    between atoms: _327  and  _328
REMARK  128  A    between atoms: _330  and  _332
REMARK  129  A    between atoms: _332  and  _333
REMARK  130  A    between atoms: _332  and  _335
REMARK  131  A    between atoms: _335  and  _336
REMARK  132  A    between atoms: _336  and  _337
REMARK  133  A    between atoms: _337  and  _338
REMARK  134  A    between atoms: _338  and  _339
REMARK  135  A    between atoms: _343  and  _345
REMARK  136  A    between atoms: _345  and  _346
REMARK  137  A    between atoms: _345  and  _348
REMARK  138  A    between atoms: _348  and  _349
REMARK  139  A    between atoms: _349  and  _350
REMARK  140  A    between atoms: _353  and  _355
REMARK  141  A    between atoms: _355  and  _356
REMARK  142  A    between atoms: _355  and  _358
REMARK  143  A    between atoms: _358  and  _359
REMARK  144  A    between atoms: _365  and  _367
REMARK  145  A    between atoms: _367  and  _368
REMARK  146  A    between atoms: _367  and  _370
REMARK  147  A    between atoms: _370  and  _371
REMARK  148  A    between atoms: _376  and  _378
REMARK  149  A    between atoms: _378  and  _379
REMARK  150  A    between atoms: _378  and  _381
REMARK  151  A    between atoms: _381  and  _382
REMARK  152  A    between atoms: _387  and  _389
REMARK  153  A    between atoms: _389  and  _390
REMARK  154  A    between atoms: _389  and  _392
REMARK  155  A    between atoms: _392  and  _393
REMARK  156  A    between atoms: _403  and  _405
REMARK  157  A    between atoms: _405  and  _406
REMARK  158  A    between atoms: _405  and  _408
REMARK  159  A    between atoms: _408  and  _409
REMARK  160  A    between atoms: _409  and  _410
REMARK  161  A    between atoms: _415  and  _417
REMARK  162  A    between atoms: _417  and  _418
REMARK  163  A    between atoms: _417  and  _420
REMARK  164  A    between atoms: _420  and  _421
REMARK  165  A    between atoms: _426  and  _428
REMARK  166  A    between atoms: _428  and  _429
REMARK  167  A    between atoms: _428  and  _431
REMARK  168  A    between atoms: _431  and  _432
REMARK  169  A    between atoms: _435  and  _437
REMARK  170  A    between atoms: _437  and  _438
REMARK  171  A    between atoms: _437  and  _440
REMARK  172  A    between atoms: _440  and  _441
REMARK  173  A    between atoms: _444  and  _446
REMARK  174  A    between atoms: _446  and  _447
REMARK  175  A    between atoms: _449  and  _451
REMARK  176  A    between atoms: _451  and  _452
REMARK  177  A    between atoms: _451  and  _454
REMARK  178  A    between atoms: _454  and  _455
REMARK  179  A    between atoms: _455  and  _456
REMARK                            x       y       z     vdW  Elec       q    Type
REMARK                         _______ _______ _______ _____ _____    ______ ____
ROOT
ATOM      1  CA  GLU A   1       8.462  51.127  75.474  0.00  0.00    +0.134 C 
ENDROOT
BRANCH   1   2
ATOM      2  N   GLU A   1       8.674  50.259  74.310  0.00  0.00    -0.239 NA
ATOM      3  H   GLU A   1       9.646  50.026  74.023  0.00  0.00    +0.142 HD
ENDBRANCH   1   2
BRANCH   1   4
ATOM      4  C   GLU A   1       8.205  52.549  74.961  0.00  0.00    +0.224 C 
ATOM      5  O   GLU A   1       8.956  53.049  74.109  0.00  0.00    -0.287 OA
ENDBRANCH   1   4
BRANCH   1   6
ATOM      6  CB  GLU A   1       9.656  51.103  76.430  0.00  0.00    +0.037 C 
BRANCH   6   7
ATOM      7  CG  GLU A   1      10.230  49.721  76.723  0.00  0.00    +0.116 C 
BRANCH   7   8
ATOM      8  CD  GLU A   1       9.487  48.935  77.840  0.00  0.00    +0.365 C 
ATOM      9  OE2 GLU A   1       8.467  49.443  78.390  0.00  0.00    -0.246 OA
ATOM     10  OE1 GLU A   1       9.928  47.786  78.132  0.00  0.00    -0.246 OA
ENDBRANCH   7   8
ENDBRANCH   6   7
ENDBRANCH   1   6
TORSDOF 5
REMARK  Name = ../refined-set-2016/3qfz/3qfz_pocket.pdb
REMARK  179 active torsions:
REMARK  status: ('A' for Active; 'I' for Inactive)
REMARK    1  A    between atoms: _1  and  _3
REMARK    2  A    between atoms: _3  and  _4
REMARK    3  A    between atoms: _3  and  _6
REMARK    4  A    between atoms: _6  and  _7
REMARK    5  A    between atoms: _9  and  _11
REMARK    6  A    between atoms: _11  and  _12
REMARK    7  A    between atoms: _11  and  _14
REMARK    8  A    between atoms: _14  and  _15
REMARK    9  A    between atoms: _15  and  _16
REMARK   10  A    between atoms: _16  and  _17
REMARK   11  A    between atoms: _26  and  _28
REMARK   12  A    between atoms: _28  and  _29
REMARK   13  A    between atoms: _28  and  _31
REMARK   14  A    between atoms: _31  and  _32
REMARK   15  A    between atoms: _34  and  _36
REMARK   16  A    between atoms: _36  and  _37
REMARK   17  A    between atoms: _36  and  _39
REMARK   18  A    between atoms: _39  and  _40
REMARK   19  A    between atoms: _40  and  _41
REMARK   20  A    between atoms: _44  and  _46
REMARK   21  A    between atoms: _46  and  _47
REMARK   22  A    between atoms: _46  and  _49
REMARK   23  A    between atoms: _49  and  _50
REMARK   24  A    between atoms: _50  and  _51
REMARK   25  A    between atoms: _51  and  _52
REMARK   26  A    between atoms: _61  and  _63
REMARK   27  A    between atoms: _63  and  _64
REMARK   28  A    between atoms: _66  and  _68
REMARK   29  A    between atoms: _68  and  _69
REMARK   30  A    between atoms: _68  and  _71
REMARK   31  A    between atoms: _71  and  _72
REMARK   32  A    between atoms: _78  and  _80
REMARK   33  A    between atoms: _80  and  _81
REMARK   34  A    between atoms: _80  and  _83
REMARK   35  A    between atoms: _84  and  _85
REMARK   36  A    between atoms: _85  and  _86
REMARK   37  A    between atoms: _95  and  _97
REMARK   38  A    between atoms: _97  and  _98
REMARK   39  A    between atoms: _97  and  _100
REMARK   40  A    between atoms: _100  and  _101
REMARK   41  A    between atoms: _104  and  _106
REMARK   42  A    between atoms: _106  and  _107
REMARK   43  A    between atoms: _106  and  _109
REMARK   44  A    between atoms: _109  and  _110
REMARK   45  A    between atoms: _112  and  _114
REMARK   46  A    between atoms: _114  and  _115
REMARK   47  A    between atoms: _114  and  _117
REMARK   48  A    between atoms: _117  and  _118
REMARK   49  A    between atoms: _118  and  _119
REMARK   50  A    between atoms: _124  and  _126
REMARK   51  A    between atoms: _126  and  _127
REMARK   52  A    between atoms: _126  and  _129
REMARK   53  A    between atoms: _129  and  _130
REMARK   54  A    between atoms: _135  and  _137
REMARK   55  A    between atoms: _137  and  _138
REMARK   56  A    between atoms: _137  and  _140
REMARK   57  A    between atoms: _140  and  _141
REMARK   58  A    between atoms: _144  and  _146
REMARK   59  A    between atoms: _146  and  _147
REMARK   60  A    between atoms: _146  and  _149
REMARK   61  A    between atoms: _149  and  _150
REMARK   62  A    between atoms: _156  and  _158
REMARK   63  A    between atoms: _158  and  _159
REMARK   64  A    between atoms: _158  and  _161
REMARK   65  A    between atoms: _161  and  _162
REMARK   66  A    between atoms: _165  and  _167
REMARK   67  A    between atoms: _167  and  _168
REMARK   68  A    between atoms: _167  and  _170
REMARK   69  A    between atoms: _170  and  _171
REMARK   70  A    between atoms: _174  and  _176
REMARK   71  A    between atoms: _176  and  _177
REMARK   72  A    between atoms: _176  and  _179
REMARK   73  A    between atoms: _179  and  _180
REMARK   74  A    between atoms: _190  and  _192
REMARK   75  A    between atoms: _192  and  _193
REMARK   76  A    between atoms: _196  and  _198
REMARK   77  A    between atoms: _198  and  _199
REMARK   78  A    between atoms: _198  and  _201
REMARK   79  A    between atoms: _201  and  _202
REMARK   80  A    between atoms: _205  and  _207
REMARK   81  A    between atoms: _207  and  _208
REMARK   82  A    between atoms: _207  and  _210
REMARK   83  A    between atoms: _210  and  _211
REMARK   84  A    between atoms: _221  and  _223
REMARK   85  A    between atoms: _223  and  _224
REMARK   86  A    between atoms: _223  and  _226
REMARK   87  A    between atoms: _226  and  _227
REMARK   88  A    between atoms: _232  and  _234
REMARK   89  A    between atoms: _234  and  _235
REMARK   90  A    between atoms: _234  and  _237
REMARK   91  A    between atoms: _237  and  _238
REMARK   92  A    between atoms: _241  and  _243
REMARK   93  A    between atoms: _243  and  _244
REMARK   94  A    between atoms: _243  and  _246
REMARK   95  A    between atoms: _248  and  _250
REMARK   96  A    between atoms: _250  and  _251
REMARK   97  A    between atoms: _250  and  _253
REMARK   98  A    between atoms: _253  and  _254
REMARK   99  A    between atoms: _257  and  _259
REMARK  100  A    between atoms: _259  and  _260
REMARK  101  A    between atoms: _259  and  _262
REMARK  102  A    between atoms: _262  and  _263
REMARK  103  A    between atoms: _268  and  _270
REMARK  104  A    between atoms: _270  and  _271
REMARK  105  A    between atoms: _270  and  _273
REMARK  106  A    between atoms: _273  and  _274
REMARK  107  A    between atoms: _274  and  _275
REMARK  108  A    between atoms: _280  and  _282
REMARK  109  A    between atoms: _282  and  _283
REMARK  110  A    between atoms: _282  and  _285
REMARK  111  A    between atoms: _285  and  _286
REMARK  112  A    between atoms: _286  and  _287
REMARK  113  A    between atoms: _287  and  _288
REMARK  114  A    between atoms: _297  and  _299
REMARK  115  A    between atoms: _299  and  _300
REMARK  116  A    between atoms: _299  and  _302
REMARK  117  A    between atoms: _302  and  _303
REMARK  118  A    between atoms: _303  and  _304
REMARK  119  A    between atoms: _307  and  _309
REMARK  120  A    between atoms: _309  and  _310
REMARK  121  A    between atoms: _309  and  _312
REMARK  122  A    between atoms: _312  and  _313
REMARK  123  A    between atoms: _316  and  _318
REMARK  124  A    between atoms: _318  and  _319
REMARK  125  A    between atoms: _318  and  _321
REMARK  126  A    between atoms: _321  and  _322
REMARK  127  A    between atoms: _327  and  _328
REMARK  128  A    between atoms: _330  and  _332
REMARK  129  A    between atoms: _332  and  _333
REMARK  130  A    between atoms: _332  and  _335
REMARK  131  A    between atoms: _335  and  _336
REMARK  132  A    between atoms: _336  and  _337
REMARK  133  A    between atoms: _337  and  _338
REMARK  134  A    between atoms: _338  and  _339
REMARK  135  A    between atoms: _343  and  _345
REMARK  136  A    between atoms: _345  and  _346
REMARK  137  A    between atoms: _345  and  _348
REMARK  138  A    between atoms: _348  and  _349
REMARK  139  A    between atoms: _349  and  _350
REMARK  140  A    between atoms: _353  and  _355
REMARK  141  A    between atoms: _355  and  _356
REMARK  142  A    between atoms: _355  and  _358
REMARK  143  A    between atoms: _358  and  _359
REMARK  144  A    between atoms: _365  and  _367
REMARK  145  A    between atoms: _367  and  _368
REMARK  146  A    between atoms: _367  and  _370
REMARK  147  A    between atoms: _370  and  _371
REMARK  148  A    between atoms: _376  and  _378
REMARK  149  A    between atoms: _378  and  _379
REMARK  150  A    between atoms: _378  and  _381
REMARK  151  A    between atoms: _381  and  _382
REMARK  152  A    between atoms: _387  and  _389
REMARK  153  A    between atoms: _389  and  _390
REMARK  154  A    between atoms: _389  and  _392
REMARK  155  A    between atoms: _392  and  _393
REMARK  156  A    between atoms: _403  and  _405
REMARK  157  A    between atoms: _405  and  _406
REMARK  158  A    between atoms: _405  and  _408
REMARK  159  A    between atoms: _408  and  _409
REMARK  160  A    between atoms: _409  and  _410
REMARK  161  A    between atoms: _415  and  _417
REMARK  162  A    between atoms: _417  and  _418
REMARK  163  A    between atoms: _417  and  _420
REMARK  164  A    between atoms: _420  and  _421
REMARK  165  A    between atoms: _426  and  _428
REMARK  166  A    between atoms: _428  and  _429
REMARK  167  A    between atoms: _428  and  _431
REMARK  168  A    between atoms: _431  and  _432
REMARK  169  A    between atoms: _435  and  _437
REMARK  170  A    between atoms: _437  and  _438
REMARK  171  A    between atoms: _437  and  _440
REMARK  172  A    between atoms: _440  and  _441
REMARK  173  A    between atoms: _444  and  _446
REMARK  174  A    between atoms: _446  and  _447
REMARK  175  A    between atoms: _449  and  _451
REMARK  176  A    between atoms: _451  and  _452
REMARK  177  A    between atoms: _451  and  _454
REMARK  178  A    between atoms: _454  and  _455
REMARK  179  A    between atoms: _455  and  _456
REMARK                            x       y       z     vdW  Elec       q    Type
REMARK                         _______ _______ _______ _____ _____    ______ ____
ROOT
ATOM      1  NE  ARG A   1       9.465  49.918  82.563  0.00  0.00    -0.265 N 
ATOM      2  HE  ARG A   1       9.833  50.419  83.397  0.00  0.00    +0.259 HD
ATOM      3  CZ  ARG A   1       9.942  48.707  82.286  0.00  0.00    +0.342 C 
ATOM      4  NH2 ARG A   1      10.854  48.207  83.069  0.00  0.00    -0.292 N 
ATOM      5 HH21 ARG A   1      11.192  48.752  83.888  0.00  0.00    +0.255 HD
ATOM      6 HH22 ARG A   1      11.244  47.263  82.876  0.00  0.00    +0.255 HD
ATOM      7  NH1 ARG A   1       9.508  48.000  81.223  0.00  0.00    -0.292 N 
ATOM      8 HH11 ARG A   1       9.899  47.056  81.032  0.00  0.00    +0.255 HD
ATOM      9 HH12 ARG A   1       8.782  48.399  80.594  0.00  0.00    +0.255 HD
ENDROOT
BRANCH   1  10
ATOM     10  CD  ARG A   1       8.444  50.577  81.745  0.00  0.00    +0.174 C 
BRANCH  10  11
ATOM     11  CG  ARG A   1       8.104  51.933  82.227  0.00  0.00    +0.045 C 
BRANCH  11  12
ATOM     12  CB  ARG A   1       9.116  52.997  81.905  0.00  0.00    +0.029 C 
BRANCH  12  13
ATOM     13  CA  ARG A   1       8.726  54.337  82.558  0.00  0.00    +0.133 C 
BRANCH  13  14
ATOM     14  N   ARG A   1       7.440  54.806  82.027  0.00  0.00    -0.239 NA
ATOM     15  H   ARG A   1       7.256  54.728  81.006  0.00  0.00    +0.142 HD
ENDBRANCH  13  14
BRANCH  13  16
ATOM     16  C   ARG A   1       9.832  55.386  82.438  0.00  0.00    +0.224 C 
ATOM     17  O   ARG A   1      10.006  56.037  81.379  0.00  0.00    -0.287 OA
ENDBRANCH  13  16
ENDBRANCH  12  13
ENDBRANCH  11  12
ENDBRANCH  10  11
ENDBRANCH   1  10
TORSDOF 6
REMARK  Name = ../refined-set-2016/3qfz/3qfz_pocket.pdb
REMARK  179 active torsions:
REMARK  status: ('A' for Active; 'I' for Inactive)
REMARK    1  A    between atoms: _1  and  _3
REMARK    2  A    between atoms: _3  and  _4
REMARK    3  A    between atoms: _3  and  _6
REMARK    4  A    between atoms: _6  and  _7
REMARK    5  A    between atoms: _9  and  _11
REMARK    6  A    between atoms: _11  and  _12
REMARK    7  A    between atoms: _11  and  _14
REMARK    8  A    between atoms: _14  and  _15
REMARK    9  A    between atoms: _15  and  _16
REMARK   10  A    between atoms: _16  and  _17
REMARK   11  A    between atoms: _26  and  _28
REMARK   12  A    between atoms: _28  and  _29
REMARK   13  A    between atoms: _28  and  _31
REMARK   14  A    between atoms: _31  and  _32
REMARK   15  A    between atoms: _34  and  _36
REMARK   16  A    between atoms: _36  and  _37
REMARK   17  A    between atoms: _36  and  _39
REMARK   18  A    between atoms: _39  and  _40
REMARK   19  A    between atoms: _40  and  _41
REMARK   20  A    between atoms: _44  and  _46
REMARK   21  A    between atoms: _46  and  _47
REMARK   22  A    between atoms: _46  and  _49
REMARK   23  A    between atoms: _49  and  _50
REMARK   24  A    between atoms: _50  and  _51
REMARK   25  A    between atoms: _51  and  _52
REMARK   26  A    between atoms: _61  and  _63
REMARK   27  A    between atoms: _63  and  _64
REMARK   28  A    between atoms: _66  and  _68
REMARK   29  A    between atoms: _68  and  _69
REMARK   30  A    between atoms: _68  and  _71
REMARK   31  A    between atoms: _71  and  _72
REMARK   32  A    between atoms: _78  and  _80
REMARK   33  A    between atoms: _80  and  _81
REMARK   34  A    between atoms: _80  and  _83
REMARK   35  A    between atoms: _84  and  _85
REMARK   36  A    between atoms: _85  and  _86
REMARK   37  A    between atoms: _95  and  _97
REMARK   38  A    between atoms: _97  and  _98
REMARK   39  A    between atoms: _97  and  _100
REMARK   40  A    between atoms: _100  and  _101
REMARK   41  A    between atoms: _104  and  _106
REMARK   42  A    between atoms: _106  and  _107
REMARK   43  A    between atoms: _106  and  _109
REMARK   44  A    between atoms: _109  and  _110
REMARK   45  A    between atoms: _112  and  _114
REMARK   46  A    between atoms: _114  and  _115
REMARK   47  A    between atoms: _114  and  _117
REMARK   48  A    between atoms: _117  and  _118
REMARK   49  A    between atoms: _118  and  _119
REMARK   50  A    between atoms: _124  and  _126
REMARK   51  A    between atoms: _126  and  _127
REMARK   52  A    between atoms: _126  and  _129
REMARK   53  A    between atoms: _129  and  _130
REMARK   54  A    between atoms: _135  and  _137
REMARK   55  A    between atoms: _137  and  _138
REMARK   56  A    between atoms: _137  and  _140
REMARK   57  A    between atoms: _140  and  _141
REMARK   58  A    between atoms: _144  and  _146
REMARK   59  A    between atoms: _146  and  _147
REMARK   60  A    between atoms: _146  and  _149
REMARK   61  A    between atoms: _149  and  _150
REMARK   62  A    between atoms: _156  and  _158
REMARK   63  A    between atoms: _158  and  _159
REMARK   64  A    between atoms: _158  and  _161
REMARK   65  A    between atoms: _161  and  _162
REMARK   66  A    between atoms: _165  and  _167
REMARK   67  A    between atoms: _167  and  _168
REMARK   68  A    between atoms: _167  and  _170
REMARK   69  A    between atoms: _170  and  _171
REMARK   70  A    between atoms: _174  and  _176
REMARK   71  A    between atoms: _176  and  _177
REMARK   72  A    between atoms: _176  and  _179
REMARK   73  A    between atoms: _179  and  _180
REMARK   74  A    between atoms: _190  and  _192
REMARK   75  A    between atoms: _192  and  _193
REMARK   76  A    between atoms: _196  and  _198
REMARK   77  A    between atoms: _198  and  _199
REMARK   78  A    between atoms: _198  and  _201
REMARK   79  A    between atoms: _201  and  _202
REMARK   80  A    between atoms: _205  and  _207
REMARK   81  A    between atoms: _207  and  _208
REMARK   82  A    between atoms: _207  and  _210
REMARK   83  A    between atoms: _210  and  _211
REMARK   84  A    between atoms: _221  and  _223
REMARK   85  A    between atoms: _223  and  _224
REMARK   86  A    between atoms: _223  and  _226
REMARK   87  A    between atoms: _226  and  _227
REMARK   88  A    between atoms: _232  and  _234
REMARK   89  A    between atoms: _234  and  _235
REMARK   90  A    between atoms: _234  and  _237
REMARK   91  A    between atoms: _237  and  _238
REMARK   92  A    between atoms: _241  and  _243
REMARK   93  A    between atoms: _243  and  _244
REMARK   94  A    between atoms: _243  and  _246
REMARK   95  A    between atoms: _248  and  _250
REMARK   96  A    between atoms: _250  and  _251
REMARK   97  A    between atoms: _250  and  _253
REMARK   98  A    between atoms: _253  and  _254
REMARK   99  A    between atoms: _257  and  _259
REMARK  100  A    between atoms: _259  and  _260
REMARK  101  A    between atoms: _259  and  _262
REMARK  102  A    between atoms: _262  and  _263
REMARK  103  A    between atoms: _268  and  _270
REMARK  104  A    between atoms: _270  and  _271
REMARK  105  A    between atoms: _270  and  _273
REMARK  106  A    between atoms: _273  and  _274
REMARK  107  A    between atoms: _274  and  _275
REMARK  108  A    between atoms: _280  and  _282
REMARK  109  A    between atoms: _282  and  _283
REMARK  110  A    between atoms: _282  and  _285
REMARK  111  A    between atoms: _285  and  _286
REMARK  112  A    between atoms: _286  and  _287
REMARK  113  A    between atoms: _287  and  _288
REMARK  114  A    between atoms: _297  and  _299
REMARK  115  A    between atoms: _299  and  _300
REMARK  116  A    between atoms: _299  and  _302
REMARK  117  A    between atoms: _302  and  _303
REMARK  118  A    between atoms: _303  and  _304
REMARK  119  A    between atoms: _307  and  _309
REMARK  120  A    between atoms: _309  and  _310
REMARK  121  A    between atoms: _309  and  _312
REMARK  122  A    between atoms: _312  and  _313
REMARK  123  A    between atoms: _316  and  _318
REMARK  124  A    between atoms: _318  and  _319
REMARK  125  A    between atoms: _318  and  _321
REMARK  126  A    between atoms: _321  and  _322
REMARK  127  A    between atoms: _327  and  _328
REMARK  128  A    between atoms: _330  and  _332
REMARK  129  A    between atoms: _332  and  _333
REMARK  130  A    between atoms: _332  and  _335
REMARK  131  A    between atoms: _335  and  _336
REMARK  132  A    between atoms: _336  and  _337
REMARK  133  A    between atoms: _337  and  _338
REMARK  134  A    between atoms: _338  and  _339
REMARK  135  A    between atoms: _343  and  _345
REMARK  136  A    between atoms: _345  and  _346
REMARK  137  A    between atoms: _345  and  _348
REMARK  138  A    between atoms: _348  and  _349
REMARK  139  A    between atoms: _349  and  _350
REMARK  140  A    between atoms: _353  and  _355
REMARK  141  A    between atoms: _355  and  _356
REMARK  142  A    between atoms: _355  and  _358
REMARK  143  A    between atoms: _358  and  _359
REMARK  144  A    between atoms: _365  and  _367
REMARK  145  A    between atoms: _367  and  _368
REMARK  146  A    between atoms: _367  and  _370
REMARK  147  A    between atoms: _370  and  _371
REMARK  148  A    between atoms: _376  and  _378
REMARK  149  A    between atoms: _378  and  _379
REMARK  150  A    between atoms: _378  and  _381
REMARK  151  A    between atoms: _381  and  _382
REMARK  152  A    between atoms: _387  and  _389
REMARK  153  A    between atoms: _389  and  _390
REMARK  154  A    between atoms: _389  and  _392
REMARK  155  A    between atoms: _392  and  _393
REMARK  156  A    between atoms: _403  and  _405
REMARK  157  A    between atoms: _405  and  _406
REMARK  158  A    between atoms: _405  and  _408
REMARK  159  A    between atoms: _408  and  _409
REMARK  160  A    between atoms: _409  and  _410
REMARK  161  A    between atoms: _415  and  _417
REMARK  162  A    between atoms: _417  and  _418
REMARK  163  A    between atoms: _417  and  _420
REMARK  164  A    between atoms: _420  and  _421
REMARK  165  A    between atoms: _426  and  _428
REMARK  166  A    between atoms: _428  and  _429
REMARK  167  A    between atoms: _428  and  _431
REMARK  168  A    between atoms: _431  and  _432
REMARK  169  A    between atoms: _435  and  _437
REMARK  170  A    between atoms: _437  and  _438
REMARK  171  A    between atoms: _437  and  _440
REMARK  172  A    between atoms: _440  and  _441
REMARK  173  A    between atoms: _444  and  _446
REMARK  174  A    between atoms: _446  and  _447
REMARK  175  A    between atoms: _449  and  _451
REMARK  176  A    between atoms: _451  and  _452
REMARK  177  A    between atoms: _451  and  _454
REMARK  178  A    between atoms: _454  and  _455
REMARK  179  A    between atoms: _455  and  _456
REMARK                            x       y       z     vdW  Elec       q    Type
REMARK                         _______ _______ _______ _____ _____    ______ ____
ROOT
ATOM      1  CA  ARG A   3      16.675  47.460  89.668  0.00  0.00    +0.171 C 
ENDROOT
BRANCH   1   2
ATOM      2  C   ARG A   3      17.342  47.543  88.277  0.00  0.00    +0.245 C 
ATOM      3  O   ARG A   3      18.511  47.154  88.076  0.00  0.00    -0.273 OA
ATOM      4  N   ASP A   4      16.613  48.119  87.341  0.00  0.00    -0.296 N 
ATOM      5  H   ASP A   4      15.701  48.542  87.607  0.00  0.00    +0.150 HD
BRANCH   4   6
ATOM      6  CA  ASP A   4      17.036  48.184  85.954  0.00  0.00    +0.160 C 
BRANCH   6   7
ATOM      7  C   ASP A   4      18.351  48.928  85.771  0.00  0.00    +0.241 C 
ATOM      8  N   SER A   5      18.444  50.121  86.320  0.00  0.00    -0.296 N 
ATOM      9  H   SER A   5      17.644  50.513  86.856  0.00  0.00    +0.150 HD
ATOM     10  O   ASP A   4      19.284  48.412  85.157  0.00  0.00    -0.273 OA
BRANCH   8  11
ATOM     11  CA  SER A   5      19.672  50.889  86.173  0.00  0.00    +0.166 C 
BRANCH  11  12
ATOM     12  C   SER A   5      20.848  50.413  87.023  0.00  0.00    +0.229 C 
ATOM     13  O   SER A   5      22.014  50.535  86.595  0.00  0.00    -0.286 OA
ENDBRANCH  11  12
BRANCH  11  14
ATOM     14  CB  SER A   5      19.403  52.365  86.374  0.00  0.00    +0.165 C 
BRANCH  14  15
ATOM     15  OG  SER A   5      18.804  52.847  85.186  0.00  0.00    -0.380 OA
ATOM     16  H   SER A   5      19.422  52.706  84.425  0.00  0.00    +0.211 HD
ENDBRANCH  14  15
ENDBRANCH  11  14
ENDBRANCH   8  11
ENDBRANCH   6   7
BRANCH   6  17
ATOM     17  CB  ASP A   4      15.942  48.827  85.099  0.00  0.00    +0.143 C 
BRANCH  17  18
ATOM     18  CG  ASP A   4      14.581  48.159  85.281  0.00  0.00    +0.367 C 
ATOM     19  OD2 ASP A   4      13.769  48.733  86.082  0.00  0.00    -0.246 OA
ATOM     20  OD1 ASP A   4      14.326  47.100  84.625  0.00  0.00    -0.246 OA
ENDBRANCH  17  18
ENDBRANCH   6  17
ENDBRANCH   4   6
ENDBRANCH   1   2
BRANCH   1  23
ATOM     21  C   PHE A   2      16.748  49.841  90.092  0.00  0.00    +0.241 C 
ATOM     22  O   PHE A   2      17.967  49.818  90.047  0.00  0.00    -0.273 OA
ATOM     23  N   ARG A   3      16.014  48.742  89.933  0.00  0.00    -0.294 N 
ATOM     24  H   ARG A   3      14.977  48.792  89.996  0.00  0.00    +0.150 HD
BRANCH  21  25
ATOM     25  CA  PHE A   2      16.039  51.193  90.337  0.00  0.00    +0.153 C 
BRANCH  25  27
ATOM     26  C   GLY A   1      15.452  51.664  87.990  0.00  0.00    +0.240 C 
ATOM     27  N   PHE A   2      15.100  51.549  89.265  0.00  0.00    -0.297 N 
ATOM     28  H   PHE A   2      14.106  51.720  89.518  0.00  0.00    +0.150 HD
ATOM     29  O   GLY A   1      16.632  51.644  87.592  0.00  0.00    -0.274 OA
BRANCH  26  30
ATOM     30  CA  GLY A   1      14.302  51.875  87.040  0.00  0.00    +0.169 C 
BRANCH  30  31
ATOM     31  N   GLY A   1      14.617  52.875  86.007  0.00  0.00    -0.236 NA
ATOM     32  H   GLY A   1      14.839  52.556  85.043  0.00  0.00    +0.142 HD
ENDBRANCH  30  31
ENDBRANCH  26  30
ENDBRANCH  25  27
BRANCH  25  33
ATOM     33  CB  PHE A   2      15.309  51.210  91.682  0.00  0.00    +0.055 C 
BRANCH  33  34
ATOM     34  CG  PHE A   2      16.221  51.305  92.858  0.00  0.00    -0.020 A 
ATOM     35  CD2 PHE A   2      16.725  50.137  93.464  0.00  0.00    -0.004 A 
ATOM     36  CE2 PHE A   2      17.585  50.225  94.571  0.00  0.00    -0.000 A 
ATOM     37  CZ  PHE A   2      17.931  51.487  95.087  0.00  0.00    -0.000 A 
ATOM     38  CE1 PHE A   2      17.431  52.681  94.490  0.00  0.00    -0.000 A 
ATOM     39  CD1 PHE A   2      16.585  52.578  93.380  0.00  0.00    -0.004 A 
ENDBRANCH  33  34
ENDBRANCH  25  33
ENDBRANCH  21  25
ENDBRANCH   1  23
BRANCH   1  40
ATOM     40  CB  ARG A   3      15.720  46.239  89.783  0.00  0.00    +0.001 C 
ATOM     41  CG  ARG A   3      14.935  45.918  88.548  0.00  0.00    +0.014 C 
BRANCH  41  42
ATOM     42  CD  ARG A   3      14.243  44.555  88.540  0.00  0.00    +0.200 C 
BRANCH  42  43
ATOM     43  NE  ARG A   3      13.295  44.355  89.631  0.00  0.00    -0.261 N 
ATOM     44  HE  ARG A   3      13.684  44.069  90.552  0.00  0.00    +0.259 HD
ATOM     45  CZ  ARG A   3      11.974  44.507  89.549  0.00  0.00    +0.342 C 
ATOM     46  NH2 ARG A   3      11.210  44.275  90.618  0.00  0.00    -0.292 N 
ATOM     47 HH21 ARG A   3      11.646  43.976  91.514  0.00  0.00    +0.255 HD
ATOM     48 HH22 ARG A   3      10.179  44.393  90.556  0.00  0.00    +0.255 HD
ATOM     49  NH1 ARG A   3      11.402  44.869  88.405  0.00  0.00    -0.292 N 
ATOM     50 HH11 ARG A   3      10.370  44.984  88.353  0.00  0.00    +0.255 HD
ATOM     51 HH12 ARG A   3      11.987  45.037  87.561  0.00  0.00    +0.255 HD
ENDBRANCH  42  43
ENDBRANCH  41  42
ENDBRANCH   1  40
TORSDOF 19
REMARK  Name = ../refined-set-2016/3qfz/3qfz_pocket.pdb
REMARK  179 active torsions:
REMARK  status: ('A' for Active; 'I' for Inactive)
REMARK    1  A    between atoms: _1  and  _3
REMARK    2  A    between atoms: _3  and  _4
REMARK    3  A    between atoms: _3  and  _6
REMARK    4  A    between atoms: _6  and  _7
REMARK    5  A    between atoms: _9  and  _11
REMARK    6  A    between atoms: _11  and  _12
REMARK    7  A    between atoms: _11  and  _14
REMARK    8  A    between atoms: _14  and  _15
REMARK    9  A    between atoms: _15  and  _16
REMARK   10  A    between atoms: _16  and  _17
REMARK   11  A    between atoms: _26  and  _28
REMARK   12  A    between atoms: _28  and  _29
REMARK   13  A    between atoms: _28  and  _31
REMARK   14  A    between atoms: _31  and  _32
REMARK   15  A    between atoms: _34  and  _36
REMARK   16  A    between atoms: _36  and  _37
REMARK   17  A    between atoms: _36  and  _39
REMARK   18  A    between atoms: _39  and  _40
REMARK   19  A    between atoms: _40  and  _41
REMARK   20  A    between atoms: _44  and  _46
REMARK   21  A    between atoms: _46  and  _47
REMARK   22  A    between atoms: _46  and  _49
REMARK   23  A    between atoms: _49  and  _50
REMARK   24  A    between atoms: _50  and  _51
REMARK   25  A    between atoms: _51  and  _52
REMARK   26  A    between atoms: _61  and  _63
REMARK   27  A    between atoms: _63  and  _64
REMARK   28  A    between atoms: _66  and  _68
REMARK   29  A    between atoms: _68  and  _69
REMARK   30  A    between atoms: _68  and  _71
REMARK   31  A    between atoms: _71  and  _72
REMARK   32  A    between atoms: _78  and  _80
REMARK   33  A    between atoms: _80  and  _81
REMARK   34  A    between atoms: _80  and  _83
REMARK   35  A    between atoms: _84  and  _85
REMARK   36  A    between atoms: _85  and  _86
REMARK   37  A    between atoms: _95  and  _97
REMARK   38  A    between atoms: _97  and  _98
REMARK   39  A    between atoms: _97  and  _100
REMARK   40  A    between atoms: _100  and  _101
REMARK   41  A    between atoms: _104  and  _106
REMARK   42  A    between atoms: _106  and  _107
REMARK   43  A    between atoms: _106  and  _109
REMARK   44  A    between atoms: _109  and  _110
REMARK   45  A    between atoms: _112  and  _114
REMARK   46  A    between atoms: _114  and  _115
REMARK   47  A    between atoms: _114  and  _117
REMARK   48  A    between atoms: _117  and  _118
REMARK   49  A    between atoms: _118  and  _119
REMARK   50  A    between atoms: _124  and  _126
REMARK   51  A    between atoms: _126  and  _127
REMARK   52  A    between atoms: _126  and  _129
REMARK   53  A    between atoms: _129  and  _130
REMARK   54  A    between atoms: _135  and  _137
REMARK   55  A    between atoms: _137  and  _138
REMARK   56  A    between atoms: _137  and  _140
REMARK   57  A    between atoms: _140  and  _141
REMARK   58  A    between atoms: _144  and  _146
REMARK   59  A    between atoms: _146  and  _147
REMARK   60  A    between atoms: _146  and  _149
REMARK   61  A    between atoms: _149  and  _150
REMARK   62  A    between atoms: _156  and  _158
REMARK   63  A    between atoms: _158  and  _159
REMARK   64  A    between atoms: _158  and  _161
REMARK   65  A    between atoms: _161  and  _162
REMARK   66  A    between atoms: _165  and  _167
REMARK   67  A    between atoms: _167  and  _168
REMARK   68  A    between atoms: _167  and  _170
REMARK   69  A    between atoms: _170  and  _171
REMARK   70  A    between atoms: _174  and  _176
REMARK   71  A    between atoms: _176  and  _177
REMARK   72  A    between atoms: _176  and  _179
REMARK   73  A    between atoms: _179  and  _180
REMARK   74  A    between atoms: _190  and  _192
REMARK   75  A    between atoms: _192  and  _193
REMARK   76  A    between atoms: _196  and  _198
REMARK   77  A    between atoms: _198  and  _199
REMARK   78  A    between atoms: _198  and  _201
REMARK   79  A    between atoms: _201  and  _202
REMARK   80  A    between atoms: _205  and  _207
REMARK   81  A    between atoms: _207  and  _208
REMARK   82  A    between atoms: _207  and  _210
REMARK   83  A    between atoms: _210  and  _211
REMARK   84  A    between atoms: _221  and  _223
REMARK   85  A    between atoms: _223  and  _224
REMARK   86  A    between atoms: _223  and  _226
REMARK   87  A    between atoms: _226  and  _227
REMARK   88  A    between atoms: _232  and  _234
REMARK   89  A    between atoms: _234  and  _235
REMARK   90  A    between atoms: _234  and  _237
REMARK   91  A    between atoms: _237  and  _238
REMARK   92  A    between atoms: _241  and  _243
REMARK   93  A    between atoms: _243  and  _244
REMARK   94  A    between atoms: _243  and  _246
REMARK   95  A    between atoms: _248  and  _250
REMARK   96  A    between atoms: _250  and  _251
REMARK   97  A    between atoms: _250  and  _253
REMARK   98  A    between atoms: _253  and  _254
REMARK   99  A    between atoms: _257  and  _259
REMARK  100  A    between atoms: _259  and  _260
REMARK  101  A    between atoms: _259  and  _262
REMARK  102  A    between atoms: _262  and  _263
REMARK  103  A    between atoms: _268  and  _270
REMARK  104  A    between atoms: _270  and  _271
REMARK  105  A    between atoms: _270  and  _273
REMARK  106  A    between atoms: _273  and  _274
REMARK  107  A    between atoms: _274  and  _275
REMARK  108  A    between atoms: _280  and  _282
REMARK  109  A    between atoms: _282  and  _283
REMARK  110  A    between atoms: _282  and  _285
REMARK  111  A    between atoms: _285  and  _286
REMARK  112  A    between atoms: _286  and  _287
REMARK  113  A    between atoms: _287  and  _288
REMARK  114  A    between atoms: _297  and  _299
REMARK  115  A    between atoms: _299  and  _300
REMARK  116  A    between atoms: _299  and  _302
REMARK  117  A    between atoms: _302  and  _303
REMARK  118  A    between atoms: _303  and  _304
REMARK  119  A    between atoms: _307  and  _309
REMARK  120  A    between atoms: _309  and  _310
REMARK  121  A    between atoms: _309  and  _312
REMARK  122  A    between atoms: _312  and  _313
REMARK  123  A    between atoms: _316  and  _318
REMARK  124  A    between atoms: _318  and  _319
REMARK  125  A    between atoms: _318  and  _321
REMARK  126  A    between atoms: _321  and  _322
REMARK  127  A    between atoms: _327  and  _328
REMARK  128  A    between atoms: _330  and  _332
REMARK  129  A    between atoms: _332  and  _333
REMARK  130  A    between atoms: _332  and  _335
REMARK  131  A    between atoms: _335  and  _336
REMARK  132  A    between atoms: _336  and  _337
REMARK  133  A    between atoms: _337  and  _338
REMARK  134  A    between atoms: _338  and  _339
REMARK  135  A    between atoms: _343  and  _345
REMARK  136  A    between atoms: _345  and  _346
REMARK  137  A    between atoms: _345  and  _348
REMARK  138  A    between atoms: _348  and  _349
REMARK  139  A    between atoms: _349  and  _350
REMARK  140  A    between atoms: _353  and  _355
REMARK  141  A    between atoms: _355  and  _356
REMARK  142  A    between atoms: _355  and  _358
REMARK  143  A    between atoms: _358  and  _359
REMARK  144  A    between atoms: _365  and  _367
REMARK  145  A    between atoms: _367  and  _368
REMARK  146  A    between atoms: _367  and  _370
REMARK  147  A    between atoms: _370  and  _371
REMARK  148  A    between atoms: _376  and  _378
REMARK  149  A    between atoms: _378  and  _379
REMARK  150  A    between atoms: _378  and  _381
REMARK  151  A    between atoms: _381  and  _382
REMARK  152  A    between atoms: _387  and  _389
REMARK  153  A    between atoms: _389  and  _390
REMARK  154  A    between atoms: _389  and  _392
REMARK  155  A    between atoms: _392  and  _393
REMARK  156  A    between atoms: _403  and  _405
REMARK  157  A    between atoms: _405  and  _406
REMARK  158  A    between atoms: _405  and  _408
REMARK  159  A    between atoms: _408  and  _409
REMARK  160  A    between atoms: _409  and  _410
REMARK  161  A    between atoms: _415  and  _417
REMARK  162  A    between atoms: _417  and  _418
REMARK  163  A    between atoms: _417  and  _420
REMARK  164  A    between atoms: _420  and  _421
REMARK  165  A    between atoms: _426  and  _428
REMARK  166  A    between atoms: _428  and  _429
REMARK  167  A    between atoms: _428  and  _431
REMARK  168  A    between atoms: _431  and  _432
REMARK  169  A    between atoms: _435  and  _437
REMARK  170  A    between atoms: _437  and  _438
REMARK  171  A    between atoms: _437  and  _440
REMARK  172  A    between atoms: _440  and  _441
REMARK  173  A    between atoms: _444  and  _446
REMARK  174  A    between atoms: _446  and  _447
REMARK  175  A    between atoms: _449  and  _451
REMARK  176  A    between atoms: _451  and  _452
REMARK  177  A    between atoms: _451  and  _454
REMARK  178  A    between atoms: _454  and  _455
REMARK  179  A    between atoms: _455  and  _456
REMARK                            x       y       z     vdW  Elec       q    Type
REMARK                         _______ _______ _______ _____ _____    ______ ____
ROOT
ATOM      1  CB  GLN A   1      20.652  44.939  86.493  0.00  0.00    +0.035 C 
ENDROOT
BRANCH   1   2
ATOM      2  CA  GLN A   1      21.789  45.920  86.778  0.00  0.00    +0.134 C 
BRANCH   2   3
ATOM      3  N   GLN A   1      21.303  47.054  87.576  0.00  0.00    -0.239 NA
ATOM      4  H   GLN A   1      20.281  47.175  87.723  0.00  0.00    +0.142 HD
ENDBRANCH   2   3
BRANCH   2   5
ATOM      5  C   GLN A   1      22.519  46.331  85.485  0.00  0.00    +0.224 C 
ATOM      6  O   GLN A   1      23.523  45.727  85.142  0.00  0.00    -0.287 OA
ENDBRANCH   2   5
ENDBRANCH   1   2
BRANCH   1   7
ATOM      7  CG  GLN A   1      20.034  44.379  87.768  0.00  0.00    +0.087 C 
BRANCH   7   8
ATOM      8  CD  GLN A   1      18.916  43.441  87.476  0.00  0.00    +0.219 C 
ATOM      9  NE2 GLN A   1      17.700  43.931  87.524  0.00  0.00    -0.329 N 
ATOM     10 HE21 GLN A   1      17.551  44.929  87.774  0.00  0.00    +0.145 HD
ATOM     11 HE22 GLN A   1      16.885  43.321  87.312  0.00  0.00    +0.145 HD
ATOM     12  OE1 GLN A   1      19.143  42.279  87.188  0.00  0.00    -0.275 OA
ENDBRANCH   7   8
ENDBRANCH   1   7
TORSDOF 5
REMARK  Name = ../refined-set-2016/3qfz/3qfz_pocket.pdb
REMARK  179 active torsions:
REMARK  status: ('A' for Active; 'I' for Inactive)
REMARK    1  A    between atoms: _1  and  _3
REMARK    2  A    between atoms: _3  and  _4
REMARK    3  A    between atoms: _3  and  _6
REMARK    4  A    between atoms: _6  and  _7
REMARK    5  A    between atoms: _9  and  _11
REMARK    6  A    between atoms: _11  and  _12
REMARK    7  A    between atoms: _11  and  _14
REMARK    8  A    between atoms: _14  and  _15
REMARK    9  A    between atoms: _15  and  _16
REMARK   10  A    between atoms: _16  and  _17
REMARK   11  A    between atoms: _26  and  _28
REMARK   12  A    between atoms: _28  and  _29
REMARK   13  A    between atoms: _28  and  _31
REMARK   14  A    between atoms: _31  and  _32
REMARK   15  A    between atoms: _34  and  _36
REMARK   16  A    between atoms: _36  and  _37
REMARK   17  A    between atoms: _36  and  _39
REMARK   18  A    between atoms: _39  and  _40
REMARK   19  A    between atoms: _40  and  _41
REMARK   20  A    between atoms: _44  and  _46
REMARK   21  A    between atoms: _46  and  _47
REMARK   22  A    between atoms: _46  and  _49
REMARK   23  A    between atoms: _49  and  _50
REMARK   24  A    between atoms: _50  and  _51
REMARK   25  A    between atoms: _51  and  _52
REMARK   26  A    between atoms: _61  and  _63
REMARK   27  A    between atoms: _63  and  _64
REMARK   28  A    between atoms: _66  and  _68
REMARK   29  A    between atoms: _68  and  _69
REMARK   30  A    between atoms: _68  and  _71
REMARK   31  A    between atoms: _71  and  _72
REMARK   32  A    between atoms: _78  and  _80
REMARK   33  A    between atoms: _80  and  _81
REMARK   34  A    between atoms: _80  and  _83
REMARK   35  A    between atoms: _84  and  _85
REMARK   36  A    between atoms: _85  and  _86
REMARK   37  A    between atoms: _95  and  _97
REMARK   38  A    between atoms: _97  and  _98
REMARK   39  A    between atoms: _97  and  _100
REMARK   40  A    between atoms: _100  and  _101
REMARK   41  A    between atoms: _104  and  _106
REMARK   42  A    between atoms: _106  and  _107
REMARK   43  A    between atoms: _106  and  _109
REMARK   44  A    between atoms: _109  and  _110
REMARK   45  A    between atoms: _112  and  _114
REMARK   46  A    between atoms: _114  and  _115
REMARK   47  A    between atoms: _114  and  _117
REMARK   48  A    between atoms: _117  and  _118
REMARK   49  A    between atoms: _118  and  _119
REMARK   50  A    between atoms: _124  and  _126
REMARK   51  A    between atoms: _126  and  _127
REMARK   52  A    between atoms: _126  and  _129
REMARK   53  A    between atoms: _129  and  _130
REMARK   54  A    between atoms: _135  and  _137
REMARK   55  A    between atoms: _137  and  _138
REMARK   56  A    between atoms: _137  and  _140
REMARK   57  A    between atoms: _140  and  _141
REMARK   58  A    between atoms: _144  and  _146
REMARK   59  A    between atoms: _146  and  _147
REMARK   60  A    between atoms: _146  and  _149
REMARK   61  A    between atoms: _149  and  _150
REMARK   62  A    between atoms: _156  and  _158
REMARK   63  A    between atoms: _158  and  _159
REMARK   64  A    between atoms: _158  and  _161
REMARK   65  A    between atoms: _161  and  _162
REMARK   66  A    between atoms: _165  and  _167
REMARK   67  A    between atoms: _167  and  _168
REMARK   68  A    between atoms: _167  and  _170
REMARK   69  A    between atoms: _170  and  _171
REMARK   70  A    between atoms: _174  and  _176
REMARK   71  A    between atoms: _176  and  _177
REMARK   72  A    between atoms: _176  and  _179
REMARK   73  A    between atoms: _179  and  _180
REMARK   74  A    between atoms: _190  and  _192
REMARK   75  A    between atoms: _192  and  _193
REMARK   76  A    between atoms: _196  and  _198
REMARK   77  A    between atoms: _198  and  _199
REMARK   78  A    between atoms: _198  and  _201
REMARK   79  A    between atoms: _201  and  _202
REMARK   80  A    between atoms: _205  and  _207
REMARK   81  A    between atoms: _207  and  _208
REMARK   82  A    between atoms: _207  and  _210
REMARK   83  A    between atoms: _210  and  _211
REMARK   84  A    between atoms: _221  and  _223
REMARK   85  A    between atoms: _223  and  _224
REMARK   86  A    between atoms: _223  and  _226
REMARK   87  A    between atoms: _226  and  _227
REMARK   88  A    between atoms: _232  and  _234
REMARK   89  A    between atoms: _234  and  _235
REMARK   90  A    between atoms: _234  and  _237
REMARK   91  A    between atoms: _237  and  _238
REMARK   92  A    between atoms: _241  and  _243
REMARK   93  A    between atoms: _243  and  _244
REMARK   94  A    between atoms: _243  and  _246
REMARK   95  A    between atoms: _248  and  _250
REMARK   96  A    between atoms: _250  and  _251
REMARK   97  A    between atoms: _250  and  _253
REMARK   98  A    between atoms: _253  and  _254
REMARK   99  A    between atoms: _257  and  _259
REMARK  100  A    between atoms: _259  and  _260
REMARK  101  A    between atoms: _259  and  _262
REMARK  102  A    between atoms: _262  and  _263
REMARK  103  A    between atoms: _268  and  _270
REMARK  104  A    between atoms: _270  and  _271
REMARK  105  A    between atoms: _270  and  _273
REMARK  106  A    between atoms: _273  and  _274
REMARK  107  A    between atoms: _274  and  _275
REMARK  108  A    between atoms: _280  and  _282
REMARK  109  A    between atoms: _282  and  _283
REMARK  110  A    between atoms: _282  and  _285
REMARK  111  A    between atoms: _285  and  _286
REMARK  112  A    between atoms: _286  and  _287
REMARK  113  A    between atoms: _287  and  _288
REMARK  114  A    between atoms: _297  and  _299
REMARK  115  A    between atoms: _299  and  _300
REMARK  116  A    between atoms: _299  and  _302
REMARK  117  A    between atoms: _302  and  _303
REMARK  118  A    between atoms: _303  and  _304
REMARK  119  A    between atoms: _307  and  _309
REMARK  120  A    between atoms: _309  and  _310
REMARK  121  A    between atoms: _309  and  _312
REMARK  122  A    between atoms: _312  and  _313
REMARK  123  A    between atoms: _316  and  _318
REMARK  124  A    between atoms: _318  and  _319
REMARK  125  A    between atoms: _318  and  _321
REMARK  126  A    between atoms: _321  and  _322
REMARK  127  A    between atoms: _327  and  _328
REMARK  128  A    between atoms: _330  and  _332
REMARK  129  A    between atoms: _332  and  _333
REMARK  130  A    between atoms: _332  and  _335
REMARK  131  A    between atoms: _335  and  _336
REMARK  132  A    between atoms: _336  and  _337
REMARK  133  A    between atoms: _337  and  _338
REMARK  134  A    between atoms: _338  and  _339
REMARK  135  A    between atoms: _343  and  _345
REMARK  136  A    between atoms: _345  and  _346
REMARK  137  A    between atoms: _345  and  _348
REMARK  138  A    between atoms: _348  and  _349
REMARK  139  A    between atoms: _349  and  _350
REMARK  140  A    between atoms: _353  and  _355
REMARK  141  A    between atoms: _355  and  _356
REMARK  142  A    between atoms: _355  and  _358
REMARK  143  A    between atoms: _358  and  _359
REMARK  144  A    between atoms: _365  and  _367
REMARK  145  A    between atoms: _367  and  _368
REMARK  146  A    between atoms: _367  and  _370
REMARK  147  A    between atoms: _370  and  _371
REMARK  148  A    between atoms: _376  and  _378
REMARK  149  A    between atoms: _378  and  _379
REMARK  150  A    between atoms: _378  and  _381
REMARK  151  A    between atoms: _381  and  _382
REMARK  152  A    between atoms: _387  and  _389
REMARK  153  A    between atoms: _389  and  _390
REMARK  154  A    between atoms: _389  and  _392
REMARK  155  A    between atoms: _392  and  _393
REMARK  156  A    between atoms: _403  and  _405
REMARK  157  A    between atoms: _405  and  _406
REMARK  158  A    between atoms: _405  and  _408
REMARK  159  A    between atoms: _408  and  _409
REMARK  160  A    between atoms: _409  and  _410
REMARK  161  A    between atoms: _415  and  _417
REMARK  162  A    between atoms: _417  and  _418
REMARK  163  A    between atoms: _417  and  _420
REMARK  164  A    between atoms: _420  and  _421
REMARK  165  A    between atoms: _426  and  _428
REMARK  166  A    between atoms: _428  and  _429
REMARK  167  A    between atoms: _428  and  _431
REMARK  168  A    between atoms: _431  and  _432
REMARK  169  A    between atoms: _435  and  _437
REMARK  170  A    between atoms: _437  and  _438
REMARK  171  A    between atoms: _437  and  _440
REMARK  172  A    between atoms: _440  and  _441
REMARK  173  A    between atoms: _444  and  _446
REMARK  174  A    between atoms: _446  and  _447
REMARK  175  A    between atoms: _449  and  _451
REMARK  176  A    between atoms: _451  and  _452
REMARK  177  A    between atoms: _451  and  _454
REMARK  178  A    between atoms: _454  and  _455
REMARK  179  A    between atoms: _455  and  _456
REMARK                            x       y       z     vdW  Elec       q    Type
REMARK                         _______ _______ _______ _____ _____    ______ ____
ROOT
ATOM      1  CB  HIS A   1       9.644  50.889  91.770  0.00  0.00    +0.072 C 
ENDROOT
BRANCH   1   2
ATOM      2  CG  HIS A   1       9.807  49.665  90.920  0.00  0.00    +0.082 A 
ATOM      3  ND1 HIS A   1      10.579  48.592  91.300  0.00  0.00    -0.227 NA
ATOM      4  CE1 HIS A   1      10.510  47.652  90.369  0.00  0.00    +0.199 A 
ATOM      5  NE2 HIS A   1       9.717  48.077  89.400  0.00  0.00    -0.221 NA
ATOM      6  CD2 HIS A   1       9.262  49.332  89.718  0.00  0.00    +0.115 A 
ENDBRANCH   1   2
BRANCH   1   7
ATOM      7  CA  HIS A   1      10.930  51.698  91.992  0.00  0.00    +0.139 C 
BRANCH   7   8
ATOM      8  N   HIS A   1      10.680  52.737  92.968  0.00  0.00    -0.239 NA
ATOM      9  H   HIS A   1       9.706  53.056  93.143  0.00  0.00    +0.142 HD
ENDBRANCH   7   8
BRANCH   7  10
ATOM     10  C   HIS A   1      11.571  52.273  90.701  0.00  0.00    +0.224 C 
ATOM     11  O   HIS A   1      12.215  51.552  89.933  0.00  0.00    -0.287 OA
ENDBRANCH   7  10
ENDBRANCH   1   7
TORSDOF 4
REMARK  Name = ../refined-set-2016/3qfz/3qfz_pocket.pdb
REMARK  179 active torsions:
REMARK  status: ('A' for Active; 'I' for Inactive)
REMARK    1  A    between atoms: _1  and  _3
REMARK    2  A    between atoms: _3  and  _4
REMARK    3  A    between atoms: _3  and  _6
REMARK    4  A    between atoms: _6  and  _7
REMARK    5  A    between atoms: _9  and  _11
REMARK    6  A    between atoms: _11  and  _12
REMARK    7  A    between atoms: _11  and  _14
REMARK    8  A    between atoms: _14  and  _15
REMARK    9  A    between atoms: _15  and  _16
REMARK   10  A    between atoms: _16  and  _17
REMARK   11  A    between atoms: _26  and  _28
REMARK   12  A    between atoms: _28  and  _29
REMARK   13  A    between atoms: _28  and  _31
REMARK   14  A    between atoms: _31  and  _32
REMARK   15  A    between atoms: _34  and  _36
REMARK   16  A    between atoms: _36  and  _37
REMARK   17  A    between atoms: _36  and  _39
REMARK   18  A    between atoms: _39  and  _40
REMARK   19  A    between atoms: _40  and  _41
REMARK   20  A    between atoms: _44  and  _46
REMARK   21  A    between atoms: _46  and  _47
REMARK   22  A    between atoms: _46  and  _49
REMARK   23  A    between atoms: _49  and  _50
REMARK   24  A    between atoms: _50  and  _51
REMARK   25  A    between atoms: _51  and  _52
REMARK   26  A    between atoms: _61  and  _63
REMARK   27  A    between atoms: _63  and  _64
REMARK   28  A    between atoms: _66  and  _68
REMARK   29  A    between atoms: _68  and  _69
REMARK   30  A    between atoms: _68  and  _71
REMARK   31  A    between atoms: _71  and  _72
REMARK   32  A    between atoms: _78  and  _80
REMARK   33  A    between atoms: _80  and  _81
REMARK   34  A    between atoms: _80  and  _83
REMARK   35  A    between atoms: _84  and  _85
REMARK   36  A    between atoms: _85  and  _86
REMARK   37  A    between atoms: _95  and  _97
REMARK   38  A    between atoms: _97  and  _98
REMARK   39  A    between atoms: _97  and  _100
REMARK   40  A    between atoms: _100  and  _101
REMARK   41  A    between atoms: _104  and  _106
REMARK   42  A    between atoms: _106  and  _107
REMARK   43  A    between atoms: _106  and  _109
REMARK   44  A    between atoms: _109  and  _110
REMARK   45  A    between atoms: _112  and  _114
REMARK   46  A    between atoms: _114  and  _115
REMARK   47  A    between atoms: _114  and  _117
REMARK   48  A    between atoms: _117  and  _118
REMARK   49  A    between atoms: _118  and  _119
REMARK   50  A    between atoms: _124  and  _126
REMARK   51  A    between atoms: _126  and  _127
REMARK   52  A    between atoms: _126  and  _129
REMARK   53  A    between atoms: _129  and  _130
REMARK   54  A    between atoms: _135  and  _137
REMARK   55  A    between atoms: _137  and  _138
REMARK   56  A    between atoms: _137  and  _140
REMARK   57  A    between atoms: _140  and  _141
REMARK   58  A    between atoms: _144  and  _146
REMARK   59  A    between atoms: _146  and  _147
REMARK   60  A    between atoms: _146  and  _149
REMARK   61  A    between atoms: _149  and  _150
REMARK   62  A    between atoms: _156  and  _158
REMARK   63  A    between atoms: _158  and  _159
REMARK   64  A    between atoms: _158  and  _161
REMARK   65  A    between atoms: _161  and  _162
REMARK   66  A    between atoms: _165  and  _167
REMARK   67  A    between atoms: _167  and  _168
REMARK   68  A    between atoms: _167  and  _170
REMARK   69  A    between atoms: _170  and  _171
REMARK   70  A    between atoms: _174  and  _176
REMARK   71  A    between atoms: _176  and  _177
REMARK   72  A    between atoms: _176  and  _179
REMARK   73  A    between atoms: _179  and  _180
REMARK   74  A    between atoms: _190  and  _192
REMARK   75  A    between atoms: _192  and  _193
REMARK   76  A    between atoms: _196  and  _198
REMARK   77  A    between atoms: _198  and  _199
REMARK   78  A    between atoms: _198  and  _201
REMARK   79  A    between atoms: _201  and  _202
REMARK   80  A    between atoms: _205  and  _207
REMARK   81  A    between atoms: _207  and  _208
REMARK   82  A    between atoms: _207  and  _210
REMARK   83  A    between atoms: _210  and  _211
REMARK   84  A    between atoms: _221  and  _223
REMARK   85  A    between atoms: _223  and  _224
REMARK   86  A    between atoms: _223  and  _226
REMARK   87  A    between atoms: _226  and  _227
REMARK   88  A    between atoms: _232  and  _234
REMARK   89  A    between atoms: _234  and  _235
REMARK   90  A    between atoms: _234  and  _237
REMARK   91  A    between atoms: _237  and  _238
REMARK   92  A    between atoms: _241  and  _243
REMARK   93  A    between atoms: _243  and  _244
REMARK   94  A    between atoms: _243  and  _246
REMARK   95  A    between atoms: _248  and  _250
REMARK   96  A    between atoms: _250  and  _251
REMARK   97  A    between atoms: _250  and  _253
REMARK   98  A    between atoms: _253  and  _254
REMARK   99  A    between atoms: _257  and  _259
REMARK  100  A    between atoms: _259  and  _260
REMARK  101  A    between atoms: _259  and  _262
REMARK  102  A    between atoms: _262  and  _263
REMARK  103  A    between atoms: _268  and  _270
REMARK  104  A    between atoms: _270  and  _271
REMARK  105  A    between atoms: _270  and  _273
REMARK  106  A    between atoms: _273  and  _274
REMARK  107  A    between atoms: _274  and  _275
REMARK  108  A    between atoms: _280  and  _282
REMARK  109  A    between atoms: _282  and  _283
REMARK  110  A    between atoms: _282  and  _285
REMARK  111  A    between atoms: _285  and  _286
REMARK  112  A    between atoms: _286  and  _287
REMARK  113  A    between atoms: _287  and  _288
REMARK  114  A    between atoms: _297  and  _299
REMARK  115  A    between atoms: _299  and  _300
REMARK  116  A    between atoms: _299  and  _302
REMARK  117  A    between atoms: _302  and  _303
REMARK  118  A    between atoms: _303  and  _304
REMARK  119  A    between atoms: _307  and  _309
REMARK  120  A    between atoms: _309  and  _310
REMARK  121  A    between atoms: _309  and  _312
REMARK  122  A    between atoms: _312  and  _313
REMARK  123  A    between atoms: _316  and  _318
REMARK  124  A    between atoms: _318  and  _319
REMARK  125  A    between atoms: _318  and  _321
REMARK  126  A    between atoms: _321  and  _322
REMARK  127  A    between atoms: _327  and  _328
REMARK  128  A    between atoms: _330  and  _332
REMARK  129  A    between atoms: _332  and  _333
REMARK  130  A    between atoms: _332  and  _335
REMARK  131  A    between atoms: _335  and  _336
REMARK  132  A    between atoms: _336  and  _337
REMARK  133  A    between atoms: _337  and  _338
REMARK  134  A    between atoms: _338  and  _339
REMARK  135  A    between atoms: _343  and  _345
REMARK  136  A    between atoms: _345  and  _346
REMARK  137  A    between atoms: _345  and  _348
REMARK  138  A    between atoms: _348  and  _349
REMARK  139  A    between atoms: _349  and  _350
REMARK  140  A    between atoms: _353  and  _355
REMARK  141  A    between atoms: _355  and  _356
REMARK  142  A    between atoms: _355  and  _358
REMARK  143  A    between atoms: _358  and  _359
REMARK  144  A    between atoms: _365  and  _367
REMARK  145  A    between atoms: _367  and  _368
REMARK  146  A    between atoms: _367  and  _370
REMARK  147  A    between atoms: _370  and  _371
REMARK  148  A    between atoms: _376  and  _378
REMARK  149  A    between atoms: _378  and  _379
REMARK  150  A    between atoms: _378  and  _381
REMARK  151  A    between atoms: _381  and  _382
REMARK  152  A    between atoms: _387  and  _389
REMARK  153  A    between atoms: _389  and  _390
REMARK  154  A    between atoms: _389  and  _392
REMARK  155  A    between atoms: _392  and  _393
REMARK  156  A    between atoms: _403  and  _405
REMARK  157  A    between atoms: _405  and  _406
REMARK  158  A    between atoms: _405  and  _408
REMARK  159  A    between atoms: _408  and  _409
REMARK  160  A    between atoms: _409  and  _410
REMARK  161  A    between atoms: _415  and  _417
REMARK  162  A    between atoms: _417  and  _418
REMARK  163  A    between atoms: _417  and  _420
REMARK  164  A    between atoms: _420  and  _421
REMARK  165  A    between atoms: _426  and  _428
REMARK  166  A    between atoms: _428  and  _429
REMARK  167  A    between atoms: _428  and  _431
REMARK  168  A    between atoms: _431  and  _432
REMARK  169  A    between atoms: _435  and  _437
REMARK  170  A    between atoms: _437  and  _438
REMARK  171  A    between atoms: _437  and  _440
REMARK  172  A    between atoms: _440  and  _441
REMARK  173  A    between atoms: _444  and  _446
REMARK  174  A    between atoms: _446  and  _447
REMARK  175  A    between atoms: _449  and  _451
REMARK  176  A    between atoms: _451  and  _452
REMARK  177  A    between atoms: _451  and  _454
REMARK  178  A    between atoms: _454  and  _455
REMARK  179  A    between atoms: _455  and  _456
REMARK                            x       y       z     vdW  Elec       q    Type
REMARK                         _______ _______ _______ _____ _____    ______ ____
ROOT
ATOM      1  CA  ILE A   1       4.675  51.652  88.034  0.00  0.00    +0.133 C 
ENDROOT
BRANCH   1   2
ATOM      2  N   ILE A   1       4.741  53.076  88.378  0.00  0.00    -0.239 NA
ATOM      3  H   ILE A   1       5.591  53.446  88.849  0.00  0.00    +0.142 HD
ENDBRANCH   1   2
BRANCH   1   4
ATOM      4  C   ILE A   1       4.889  50.802  89.302  0.00  0.00    +0.224 C 
ATOM      5  O   ILE A   1       5.366  49.671  89.230  0.00  0.00    -0.287 OA
ENDBRANCH   1   4
BRANCH   1   6
ATOM      6  CB  ILE A   1       5.652  51.224  86.875  0.00  0.00    +0.023 C 
ATOM      7  CG2 ILE A   1       5.430  52.035  85.572  0.00  0.00    +0.002 C 
BRANCH   6   8
ATOM      8  CG1 ILE A   1       7.126  51.356  87.271  0.00  0.00    +0.002 C 
ATOM      9  CD1 ILE A   1       8.036  50.521  86.359  0.00  0.00    +0.000 C 
ENDBRANCH   6   8
ENDBRANCH   1   6
TORSDOF 4
REMARK  Name = ../refined-set-2016/3qfz/3qfz_pocket.pdb
REMARK  179 active torsions:
REMARK  status: ('A' for Active; 'I' for Inactive)
REMARK    1  A    between atoms: _1  and  _3
REMARK    2  A    between atoms: _3  and  _4
REMARK    3  A    between atoms: _3  and  _6
REMARK    4  A    between atoms: _6  and  _7
REMARK    5  A    between atoms: _9  and  _11
REMARK    6  A    between atoms: _11  and  _12
REMARK    7  A    between atoms: _11  and  _14
REMARK    8  A    between atoms: _14  and  _15
REMARK    9  A    between atoms: _15  and  _16
REMARK   10  A    between atoms: _16  and  _17
REMARK   11  A    between atoms: _26  and  _28
REMARK   12  A    between atoms: _28  and  _29
REMARK   13  A    between atoms: _28  and  _31
REMARK   14  A    between atoms: _31  and  _32
REMARK   15  A    between atoms: _34  and  _36
REMARK   16  A    between atoms: _36  and  _37
REMARK   17  A    between atoms: _36  and  _39
REMARK   18  A    between atoms: _39  and  _40
REMARK   19  A    between atoms: _40  and  _41
REMARK   20  A    between atoms: _44  and  _46
REMARK   21  A    between atoms: _46  and  _47
REMARK   22  A    between atoms: _46  and  _49
REMARK   23  A    between atoms: _49  and  _50
REMARK   24  A    between atoms: _50  and  _51
REMARK   25  A    between atoms: _51  and  _52
REMARK   26  A    between atoms: _61  and  _63
REMARK   27  A    between atoms: _63  and  _64
REMARK   28  A    between atoms: _66  and  _68
REMARK   29  A    between atoms: _68  and  _69
REMARK   30  A    between atoms: _68  and  _71
REMARK   31  A    between atoms: _71  and  _72
REMARK   32  A    between atoms: _78  and  _80
REMARK   33  A    between atoms: _80  and  _81
REMARK   34  A    between atoms: _80  and  _83
REMARK   35  A    between atoms: _84  and  _85
REMARK   36  A    between atoms: _85  and  _86
REMARK   37  A    between atoms: _95  and  _97
REMARK   38  A    between atoms: _97  and  _98
REMARK   39  A    between atoms: _97  and  _100
REMARK   40  A    between atoms: _100  and  _101
REMARK   41  A    between atoms: _104  and  _106
REMARK   42  A    between atoms: _106  and  _107
REMARK   43  A    between atoms: _106  and  _109
REMARK   44  A    between atoms: _109  and  _110
REMARK   45  A    between atoms: _112  and  _114
REMARK   46  A    between atoms: _114  and  _115
REMARK   47  A    between atoms: _114  and  _117
REMARK   48  A    between atoms: _117  and  _118
REMARK   49  A    between atoms: _118  and  _119
REMARK   50  A    between atoms: _124  and  _126
REMARK   51  A    between atoms: _126  and  _127
REMARK   52  A    between atoms: _126  and  _129
REMARK   53  A    between atoms: _129  and  _130
REMARK   54  A    between atoms: _135  and  _137
REMARK   55  A    between atoms: _137  and  _138
REMARK   56  A    between atoms: _137  and  _140
REMARK   57  A    between atoms: _140  and  _141
REMARK   58  A    between atoms: _144  and  _146
REMARK   59  A    between atoms: _146  and  _147
REMARK   60  A    between atoms: _146  and  _149
REMARK   61  A    between atoms: _149  and  _150
REMARK   62  A    between atoms: _156  and  _158
REMARK   63  A    between atoms: _158  and  _159
REMARK   64  A    between atoms: _158  and  _161
REMARK   65  A    between atoms: _161  and  _162
REMARK   66  A    between atoms: _165  and  _167
REMARK   67  A    between atoms: _167  and  _168
REMARK   68  A    between atoms: _167  and  _170
REMARK   69  A    between atoms: _170  and  _171
REMARK   70  A    between atoms: _174  and  _176
REMARK   71  A    between atoms: _176  and  _177
REMARK   72  A    between atoms: _176  and  _179
REMARK   73  A    between atoms: _179  and  _180
REMARK   74  A    between atoms: _190  and  _192
REMARK   75  A    between atoms: _192  and  _193
REMARK   76  A    between atoms: _196  and  _198
REMARK   77  A    between atoms: _198  and  _199
REMARK   78  A    between atoms: _198  and  _201
REMARK   79  A    between atoms: _201  and  _202
REMARK   80  A    between atoms: _205  and  _207
REMARK   81  A    between atoms: _207  and  _208
REMARK   82  A    between atoms: _207  and  _210
REMARK   83  A    between atoms: _210  and  _211
REMARK   84  A    between atoms: _221  and  _223
REMARK   85  A    between atoms: _223  and  _224
REMARK   86  A    between atoms: _223  and  _226
REMARK   87  A    between atoms: _226  and  _227
REMARK   88  A    between atoms: _232  and  _234
REMARK   89  A    between atoms: _234  and  _235
REMARK   90  A    between atoms: _234  and  _237
REMARK   91  A    between atoms: _237  and  _238
REMARK   92  A    between atoms: _241  and  _243
REMARK   93  A    between atoms: _243  and  _244
REMARK   94  A    between atoms: _243  and  _246
REMARK   95  A    between atoms: _248  and  _250
REMARK   96  A    between atoms: _250  and  _251
REMARK   97  A    between atoms: _250  and  _253
REMARK   98  A    between atoms: _253  and  _254
REMARK   99  A    between atoms: _257  and  _259
REMARK  100  A    between atoms: _259  and  _260
REMARK  101  A    between atoms: _259  and  _262
REMARK  102  A    between atoms: _262  and  _263
REMARK  103  A    between atoms: _268  and  _270
REMARK  104  A    between atoms: _270  and  _271
REMARK  105  A    between atoms: _270  and  _273
REMARK  106  A    between atoms: _273  and  _274
REMARK  107  A    between atoms: _274  and  _275
REMARK  108  A    between atoms: _280  and  _282
REMARK  109  A    between atoms: _282  and  _283
REMARK  110  A    between atoms: _282  and  _285
REMARK  111  A    between atoms: _285  and  _286
REMARK  112  A    between atoms: _286  and  _287
REMARK  113  A    between atoms: _287  and  _288
REMARK  114  A    between atoms: _297  and  _299
REMARK  115  A    between atoms: _299  and  _300
REMARK  116  A    between atoms: _299  and  _302
REMARK  117  A    between atoms: _302  and  _303
REMARK  118  A    between atoms: _303  and  _304
REMARK  119  A    between atoms: _307  and  _309
REMARK  120  A    between atoms: _309  and  _310
REMARK  121  A    between atoms: _309  and  _312
REMARK  122  A    between atoms: _312  and  _313
REMARK  123  A    between atoms: _316  and  _318
REMARK  124  A    between atoms: _318  and  _319
REMARK  125  A    between atoms: _318  and  _321
REMARK  126  A    between atoms: _321  and  _322
REMARK  127  A    between atoms: _327  and  _328
REMARK  128  A    between atoms: _330  and  _332
REMARK  129  A    between atoms: _332  and  _333
REMARK  130  A    between atoms: _332  and  _335
REMARK  131  A    between atoms: _335  and  _336
REMARK  132  A    between atoms: _336  and  _337
REMARK  133  A    between atoms: _337  and  _338
REMARK  134  A    between atoms: _338  and  _339
REMARK  135  A    between atoms: _343  and  _345
REMARK  136  A    between atoms: _345  and  _346
REMARK  137  A    between atoms: _345  and  _348
REMARK  138  A    between atoms: _348  and  _349
REMARK  139  A    between atoms: _349  and  _350
REMARK  140  A    between atoms: _353  and  _355
REMARK  141  A    between atoms: _355  and  _356
REMARK  142  A    between atoms: _355  and  _358
REMARK  143  A    between atoms: _358  and  _359
REMARK  144  A    between atoms: _365  and  _367
REMARK  145  A    between atoms: _367  and  _368
REMARK  146  A    between atoms: _367  and  _370
REMARK  147  A    between atoms: _370  and  _371
REMARK  148  A    between atoms: _376  and  _378
REMARK  149  A    between atoms: _378  and  _379
REMARK  150  A    between atoms: _378  and  _381
REMARK  151  A    between atoms: _381  and  _382
REMARK  152  A    between atoms: _387  and  _389
REMARK  153  A    between atoms: _389  and  _390
REMARK  154  A    between atoms: _389  and  _392
REMARK  155  A    between atoms: _392  and  _393
REMARK  156  A    between atoms: _403  and  _405
REMARK  157  A    between atoms: _405  and  _406
REMARK  158  A    between atoms: _405  and  _408
REMARK  159  A    between atoms: _408  and  _409
REMARK  160  A    between atoms: _409  and  _410
REMARK  161  A    between atoms: _415  and  _417
REMARK  162  A    between atoms: _417  and  _418
REMARK  163  A    between atoms: _417  and  _420
REMARK  164  A    between atoms: _420  and  _421
REMARK  165  A    between atoms: _426  and  _428
REMARK  166  A    between atoms: _428  and  _429
REMARK  167  A    between atoms: _428  and  _431
REMARK  168  A    between atoms: _431  and  _432
REMARK  169  A    between atoms: _435  and  _437
REMARK  170  A    between atoms: _437  and  _438
REMARK  171  A    between atoms: _437  and  _440
REMARK  172  A    between atoms: _440  and  _441
REMARK  173  A    between atoms: _444  and  _446
REMARK  174  A    between atoms: _446  and  _447
REMARK  175  A    between atoms: _449  and  _451
REMARK  176  A    between atoms: _451  and  _452
REMARK  177  A    between atoms: _451  and  _454
REMARK  178  A    between atoms: _454  and  _455
REMARK  179  A    between atoms: _455  and  _456
REMARK                            x       y       z     vdW  Elec       q    Type
REMARK                         _______ _______ _______ _____ _____    ______ ____
ROOT
ATOM      1  CB  PHE A   1       9.775  45.852  93.744  0.00  0.00    +0.051 C 
ENDROOT
BRANCH   1   2
ATOM      2  CG  PHE A   1       8.634  46.115  92.812  0.00  0.00    -0.020 A 
ATOM      3  CD2 PHE A   1       8.131  47.415  92.652  0.00  0.00    -0.004 A 
ATOM      4  CE2 PHE A   1       7.089  47.673  91.763  0.00  0.00    -0.000 A 
ATOM      5  CZ  PHE A   1       6.538  46.632  91.017  0.00  0.00    -0.000 A 
ATOM      6  CE1 PHE A   1       7.043  45.328  91.157  0.00  0.00    -0.000 A 
ATOM      7  CD1 PHE A   1       8.078  45.074  92.057  0.00  0.00    -0.004 A 
ENDBRANCH   1   2
BRANCH   1   8
ATOM      8  CA  PHE A   1       9.360  45.580  95.194  0.00  0.00    +0.137 C 
BRANCH   8   9
ATOM      9  N   PHE A   1       8.696  46.752  95.771  0.00  0.00    -0.239 NA
ATOM     10  H   PHE A   1       8.897  47.695  95.382  0.00  0.00    +0.142 HD
ENDBRANCH   8   9
BRANCH   8  11
ATOM     11  C   PHE A   1      10.595  45.244  96.034  0.00  0.00    +0.224 C 
ATOM     12  O   PHE A   1      11.574  45.980  96.016  0.00  0.00    -0.287 OA
ENDBRANCH   8  11
ENDBRANCH   1   8
TORSDOF 4
REMARK  Name = ../refined-set-2016/3qfz/3qfz_pocket.pdb
REMARK  179 active torsions:
REMARK  status: ('A' for Active; 'I' for Inactive)
REMARK    1  A    between atoms: _1  and  _3
REMARK    2  A    between atoms: _3  and  _4
REMARK    3  A    between atoms: _3  and  _6
REMARK    4  A    between atoms: _6  and  _7
REMARK    5  A    between atoms: _9  and  _11
REMARK    6  A    between atoms: _11  and  _12
REMARK    7  A    between atoms: _11  and  _14
REMARK    8  A    between atoms: _14  and  _15
REMARK    9  A    between atoms: _15  and  _16
REMARK   10  A    between atoms: _16  and  _17
REMARK   11  A    between atoms: _26  and  _28
REMARK   12  A    between atoms: _28  and  _29
REMARK   13  A    between atoms: _28  and  _31
REMARK   14  A    between atoms: _31  and  _32
REMARK   15  A    between atoms: _34  and  _36
REMARK   16  A    between atoms: _36  and  _37
REMARK   17  A    between atoms: _36  and  _39
REMARK   18  A    between atoms: _39  and  _40
REMARK   19  A    between atoms: _40  and  _41
REMARK   20  A    between atoms: _44  and  _46
REMARK   21  A    between atoms: _46  and  _47
REMARK   22  A    between atoms: _46  and  _49
REMARK   23  A    between atoms: _49  and  _50
REMARK   24  A    between atoms: _50  and  _51
REMARK   25  A    between atoms: _51  and  _52
REMARK   26  A    between atoms: _61  and  _63
REMARK   27  A    between atoms: _63  and  _64
REMARK   28  A    between atoms: _66  and  _68
REMARK   29  A    between atoms: _68  and  _69
REMARK   30  A    between atoms: _68  and  _71
REMARK   31  A    between atoms: _71  and  _72
REMARK   32  A    between atoms: _78  and  _80
REMARK   33  A    between atoms: _80  and  _81
REMARK   34  A    between atoms: _80  and  _83
REMARK   35  A    between atoms: _84  and  _85
REMARK   36  A    between atoms: _85  and  _86
REMARK   37  A    between atoms: _95  and  _97
REMARK   38  A    between atoms: _97  and  _98
REMARK   39  A    between atoms: _97  and  _100
REMARK   40  A    between atoms: _100  and  _101
REMARK   41  A    between atoms: _104  and  _106
REMARK   42  A    between atoms: _106  and  _107
REMARK   43  A    between atoms: _106  and  _109
REMARK   44  A    between atoms: _109  and  _110
REMARK   45  A    between atoms: _112  and  _114
REMARK   46  A    between atoms: _114  and  _115
REMARK   47  A    between atoms: _114  and  _117
REMARK   48  A    between atoms: _117  and  _118
REMARK   49  A    between atoms: _118  and  _119
REMARK   50  A    between atoms: _124  and  _126
REMARK   51  A    between atoms: _126  and  _127
REMARK   52  A    between atoms: _126  and  _129
REMARK   53  A    between atoms: _129  and  _130
REMARK   54  A    between atoms: _135  and  _137
REMARK   55  A    between atoms: _137  and  _138
REMARK   56  A    between atoms: _137  and  _140
REMARK   57  A    between atoms: _140  and  _141
REMARK   58  A    between atoms: _144  and  _146
REMARK   59  A    between atoms: _146  and  _147
REMARK   60  A    between atoms: _146  and  _149
REMARK   61  A    between atoms: _149  and  _150
REMARK   62  A    between atoms: _156  and  _158
REMARK   63  A    between atoms: _158  and  _159
REMARK   64  A    between atoms: _158  and  _161
REMARK   65  A    between atoms: _161  and  _162
REMARK   66  A    between atoms: _165  and  _167
REMARK   67  A    between atoms: _167  and  _168
REMARK   68  A    between atoms: _167  and  _170
REMARK   69  A    between atoms: _170  and  _171
REMARK   70  A    between atoms: _174  and  _176
REMARK   71  A    between atoms: _176  and  _177
REMARK   72  A    between atoms: _176  and  _179
REMARK   73  A    between atoms: _179  and  _180
REMARK   74  A    between atoms: _190  and  _192
REMARK   75  A    between atoms: _192  and  _193
REMARK   76  A    between atoms: _196  and  _198
REMARK   77  A    between atoms: _198  and  _199
REMARK   78  A    between atoms: _198  and  _201
REMARK   79  A    between atoms: _201  and  _202
REMARK   80  A    between atoms: _205  and  _207
REMARK   81  A    between atoms: _207  and  _208
REMARK   82  A    between atoms: _207  and  _210
REMARK   83  A    between atoms: _210  and  _211
REMARK   84  A    between atoms: _221  and  _223
REMARK   85  A    between atoms: _223  and  _224
REMARK   86  A    between atoms: _223  and  _226
REMARK   87  A    between atoms: _226  and  _227
REMARK   88  A    between atoms: _232  and  _234
REMARK   89  A    between atoms: _234  and  _235
REMARK   90  A    between atoms: _234  and  _237
REMARK   91  A    between atoms: _237  and  _238
REMARK   92  A    between atoms: _241  and  _243
REMARK   93  A    between atoms: _243  and  _244
REMARK   94  A    between atoms: _243  and  _246
REMARK   95  A    between atoms: _248  and  _250
REMARK   96  A    between atoms: _250  and  _251
REMARK   97  A    between atoms: _250  and  _253
REMARK   98  A    between atoms: _253  and  _254
REMARK   99  A    between atoms: _257  and  _259
REMARK  100  A    between atoms: _259  and  _260
REMARK  101  A    between atoms: _259  and  _262
REMARK  102  A    between atoms: _262  and  _263
REMARK  103  A    between atoms: _268  and  _270
REMARK  104  A    between atoms: _270  and  _271
REMARK  105  A    between atoms: _270  and  _273
REMARK  106  A    between atoms: _273  and  _274
REMARK  107  A    between atoms: _274  and  _275
REMARK  108  A    between atoms: _280  and  _282
REMARK  109  A    between atoms: _282  and  _283
REMARK  110  A    between atoms: _282  and  _285
REMARK  111  A    between atoms: _285  and  _286
REMARK  112  A    between atoms: _286  and  _287
REMARK  113  A    between atoms: _287  and  _288
REMARK  114  A    between atoms: _297  and  _299
REMARK  115  A    between atoms: _299  and  _300
REMARK  116  A    between atoms: _299  and  _302
REMARK  117  A    between atoms: _302  and  _303
REMARK  118  A    between atoms: _303  and  _304
REMARK  119  A    between atoms: _307  and  _309
REMARK  120  A    between atoms: _309  and  _310
REMARK  121  A    between atoms: _309  and  _312
REMARK  122  A    between atoms: _312  and  _313
REMARK  123  A    between atoms: _316  and  _318
REMARK  124  A    between atoms: _318  and  _319
REMARK  125  A    between atoms: _318  and  _321
REMARK  126  A    between atoms: _321  and  _322
REMARK  127  A    between atoms: _327  and  _328
REMARK  128  A    between atoms: _330  and  _332
REMARK  129  A    between atoms: _332  and  _333
REMARK  130  A    between atoms: _332  and  _335
REMARK  131  A    between atoms: _335  and  _336
REMARK  132  A    between atoms: _336  and  _337
REMARK  133  A    between atoms: _337  and  _338
REMARK  134  A    between atoms: _338  and  _339
REMARK  135  A    between atoms: _343  and  _345
REMARK  136  A    between atoms: _345  and  _346
REMARK  137  A    between atoms: _345  and  _348
REMARK  138  A    between atoms: _348  and  _349
REMARK  139  A    between atoms: _349  and  _350
REMARK  140  A    between atoms: _353  and  _355
REMARK  141  A    between atoms: _355  and  _356
REMARK  142  A    between atoms: _355  and  _358
REMARK  143  A    between atoms: _358  and  _359
REMARK  144  A    between atoms: _365  and  _367
REMARK  145  A    between atoms: _367  and  _368
REMARK  146  A    between atoms: _367  and  _370
REMARK  147  A    between atoms: _370  and  _371
REMARK  148  A    between atoms: _376  and  _378
REMARK  149  A    between atoms: _378  and  _379
REMARK  150  A    between atoms: _378  and  _381
REMARK  151  A    between atoms: _381  and  _382
REMARK  152  A    between atoms: _387  and  _389
REMARK  153  A    between atoms: _389  and  _390
REMARK  154  A    between atoms: _389  and  _392
REMARK  155  A    between atoms: _392  and  _393
REMARK  156  A    between atoms: _403  and  _405
REMARK  157  A    between atoms: _405  and  _406
REMARK  158  A    between atoms: _405  and  _408
REMARK  159  A    between atoms: _408  and  _409
REMARK  160  A    between atoms: _409  and  _410
REMARK  161  A    between atoms: _415  and  _417
REMARK  162  A    between atoms: _417  and  _418
REMARK  163  A    between atoms: _417  and  _420
REMARK  164  A    between atoms: _420  and  _421
REMARK  165  A    between atoms: _426  and  _428
REMARK  166  A    between atoms: _428  and  _429
REMARK  167  A    between atoms: _428  and  _431
REMARK  168  A    between atoms: _431  and  _432
REMARK  169  A    between atoms: _435  and  _437
REMARK  170  A    between atoms: _437  and  _438
REMARK  171  A    between atoms: _437  and  _440
REMARK  172  A    between atoms: _440  and  _441
REMARK  173  A    between atoms: _444  and  _446
REMARK  174  A    between atoms: _446  and  _447
REMARK  175  A    between atoms: _449  and  _451
REMARK  176  A    between atoms: _451  and  _452
REMARK  177  A    between atoms: _451  and  _454
REMARK  178  A    between atoms: _454  and  _455
REMARK  179  A    between atoms: _455  and  _456
REMARK                            x       y       z     vdW  Elec       q    Type
REMARK                         _______ _______ _______ _____ _____    ______ ____
ROOT
ATOM      1  C   ASP A   1      15.158  43.969  95.139  0.00  0.00    +0.239 C 
ATOM      2  O   ASP A   1      16.389  43.940  95.097  0.00  0.00    -0.274 OA
ATOM      3  N   ASP A   2      14.428  45.104  95.041  0.00  0.00    -0.298 N 
ATOM      4  H   ASP A   2      13.406  45.063  95.227  0.00  0.00    +0.150 HD
ENDROOT
BRANCH   1   5
ATOM      5  CA  ASP A   1      14.395  42.666  95.346  0.00  0.00    +0.156 C 
BRANCH   5   6
ATOM      6  N   ASP A   1      13.067  43.027  95.863  0.00  0.00    -0.238 NA
ATOM      7  H   ASP A   1      12.237  43.042  95.237  0.00  0.00    +0.142 HD
ENDBRANCH   5   6
BRANCH   5   8
ATOM      8  CB  ASP A   1      14.331  41.862  94.046  0.00  0.00    +0.140 C 
BRANCH   8   9
ATOM      9  CG  ASP A   1      13.638  42.637  92.931  0.00  0.00    +0.367 C 
ATOM     10  OD2 ASP A   1      12.528  43.103  93.251  0.00  0.00    -0.246 OA
ATOM     11  OD1 ASP A   1      14.191  42.824  91.789  0.00  0.00    -0.246 OA
ENDBRANCH   8   9
ENDBRANCH   5   8
ENDBRANCH   1   5
BRANCH   3  12
ATOM     12  CA  ASP A   2      15.041  46.407  94.676  0.00  0.00    +0.148 C 
BRANCH  12  13
ATOM     13  C   ASP A   2      16.293  46.739  95.499  0.00  0.00    +0.227 C 
ATOM     14  O   ASP A   2      17.375  46.925  94.928  0.00  0.00    -0.286 OA
ENDBRANCH  12  13
BRANCH  12  15
ATOM     15  CB  ASP A   2      14.060  47.596  94.733  0.00  0.00    +0.142 C 
BRANCH  15  16
ATOM     16  CG  ASP A   2      13.284  47.795  93.438  0.00  0.00    +0.367 C 
ATOM     17  OD2 ASP A   2      12.300  48.606  93.427  0.00  0.00    -0.246 OA
ATOM     18  OD1 ASP A   2      13.671  47.170  92.419  0.00  0.00    -0.246 OA
ENDBRANCH  15  16
ENDBRANCH  12  15
ENDBRANCH   3  12
TORSDOF 8
REMARK  Name = ../refined-set-2016/3qfz/3qfz_pocket.pdb
REMARK  179 active torsions:
REMARK  status: ('A' for Active; 'I' for Inactive)
REMARK    1  A    between atoms: _1  and  _3
REMARK    2  A    between atoms: _3  and  _4
REMARK    3  A    between atoms: _3  and  _6
REMARK    4  A    between atoms: _6  and  _7
REMARK    5  A    between atoms: _9  and  _11
REMARK    6  A    between atoms: _11  and  _12
REMARK    7  A    between atoms: _11  and  _14
REMARK    8  A    between atoms: _14  and  _15
REMARK    9  A    between atoms: _15  and  _16
REMARK   10  A    between atoms: _16  and  _17
REMARK   11  A    between atoms: _26  and  _28
REMARK   12  A    between atoms: _28  and  _29
REMARK   13  A    between atoms: _28  and  _31
REMARK   14  A    between atoms: _31  and  _32
REMARK   15  A    between atoms: _34  and  _36
REMARK   16  A    between atoms: _36  and  _37
REMARK   17  A    between atoms: _36  and  _39
REMARK   18  A    between atoms: _39  and  _40
REMARK   19  A    between atoms: _40  and  _41
REMARK   20  A    between atoms: _44  and  _46
REMARK   21  A    between atoms: _46  and  _47
REMARK   22  A    between atoms: _46  and  _49
REMARK   23  A    between atoms: _49  and  _50
REMARK   24  A    between atoms: _50  and  _51
REMARK   25  A    between atoms: _51  and  _52
REMARK   26  A    between atoms: _61  and  _63
REMARK   27  A    between atoms: _63  and  _64
REMARK   28  A    between atoms: _66  and  _68
REMARK   29  A    between atoms: _68  and  _69
REMARK   30  A    between atoms: _68  and  _71
REMARK   31  A    between atoms: _71  and  _72
REMARK   32  A    between atoms: _78  and  _80
REMARK   33  A    between atoms: _80  and  _81
REMARK   34  A    between atoms: _80  and  _83
REMARK   35  A    between atoms: _84  and  _85
REMARK   36  A    between atoms: _85  and  _86
REMARK   37  A    between atoms: _95  and  _97
REMARK   38  A    between atoms: _97  and  _98
REMARK   39  A    between atoms: _97  and  _100
REMARK   40  A    between atoms: _100  and  _101
REMARK   41  A    between atoms: _104  and  _106
REMARK   42  A    between atoms: _106  and  _107
REMARK   43  A    between atoms: _106  and  _109
REMARK   44  A    between atoms: _109  and  _110
REMARK   45  A    between atoms: _112  and  _114
REMARK   46  A    between atoms: _114  and  _115
REMARK   47  A    between atoms: _114  and  _117
REMARK   48  A    between atoms: _117  and  _118
REMARK   49  A    between atoms: _118  and  _119
REMARK   50  A    between atoms: _124  and  _126
REMARK   51  A    between atoms: _126  and  _127
REMARK   52  A    between atoms: _126  and  _129
REMARK   53  A    between atoms: _129  and  _130
REMARK   54  A    between atoms: _135  and  _137
REMARK   55  A    between atoms: _137  and  _138
REMARK   56  A    between atoms: _137  and  _140
REMARK   57  A    between atoms: _140  and  _141
REMARK   58  A    between atoms: _144  and  _146
REMARK   59  A    between atoms: _146  and  _147
REMARK   60  A    between atoms: _146  and  _149
REMARK   61  A    between atoms: _149  and  _150
REMARK   62  A    between atoms: _156  and  _158
REMARK   63  A    between atoms: _158  and  _159
REMARK   64  A    between atoms: _158  and  _161
REMARK   65  A    between atoms: _161  and  _162
REMARK   66  A    between atoms: _165  and  _167
REMARK   67  A    between atoms: _167  and  _168
REMARK   68  A    between atoms: _167  and  _170
REMARK   69  A    between atoms: _170  and  _171
REMARK   70  A    between atoms: _174  and  _176
REMARK   71  A    between atoms: _176  and  _177
REMARK   72  A    between atoms: _176  and  _179
REMARK   73  A    between atoms: _179  and  _180
REMARK   74  A    between atoms: _190  and  _192
REMARK   75  A    between atoms: _192  and  _193
REMARK   76  A    between atoms: _196  and  _198
REMARK   77  A    between atoms: _198  and  _199
REMARK   78  A    between atoms: _198  and  _201
REMARK   79  A    between atoms: _201  and  _202
REMARK   80  A    between atoms: _205  and  _207
REMARK   81  A    between atoms: _207  and  _208
REMARK   82  A    between atoms: _207  and  _210
REMARK   83  A    between atoms: _210  and  _211
REMARK   84  A    between atoms: _221  and  _223
REMARK   85  A    between atoms: _223  and  _224
REMARK   86  A    between atoms: _223  and  _226
REMARK   87  A    between atoms: _226  and  _227
REMARK   88  A    between atoms: _232  and  _234
REMARK   89  A    between atoms: _234  and  _235
REMARK   90  A    between atoms: _234  and  _237
REMARK   91  A    between atoms: _237  and  _238
REMARK   92  A    between atoms: _241  and  _243
REMARK   93  A    between atoms: _243  and  _244
REMARK   94  A    between atoms: _243  and  _246
REMARK   95  A    between atoms: _248  and  _250
REMARK   96  A    between atoms: _250  and  _251
REMARK   97  A    between atoms: _250  and  _253
REMARK   98  A    between atoms: _253  and  _254
REMARK   99  A    between atoms: _257  and  _259
REMARK  100  A    between atoms: _259  and  _260
REMARK  101  A    between atoms: _259  and  _262
REMARK  102  A    between atoms: _262  and  _263
REMARK  103  A    between atoms: _268  and  _270
REMARK  104  A    between atoms: _270  and  _271
REMARK  105  A    between atoms: _270  and  _273
REMARK  106  A    between atoms: _273  and  _274
REMARK  107  A    between atoms: _274  and  _275
REMARK  108  A    between atoms: _280  and  _282
REMARK  109  A    between atoms: _282  and  _283
REMARK  110  A    between atoms: _282  and  _285
REMARK  111  A    between atoms: _285  and  _286
REMARK  112  A    between atoms: _286  and  _287
REMARK  113  A    between atoms: _287  and  _288
REMARK  114  A    between atoms: _297  and  _299
REMARK  115  A    between atoms: _299  and  _300
REMARK  116  A    between atoms: _299  and  _302
REMARK  117  A    between atoms: _302  and  _303
REMARK  118  A    between atoms: _303  and  _304
REMARK  119  A    between atoms: _307  and  _309
REMARK  120  A    between atoms: _309  and  _310
REMARK  121  A    between atoms: _309  and  _312
REMARK  122  A    between atoms: _312  and  _313
REMARK  123  A    between atoms: _316  and  _318
REMARK  124  A    between atoms: _318  and  _319
REMARK  125  A    between atoms: _318  and  _321
REMARK  126  A    between atoms: _321  and  _322
REMARK  127  A    between atoms: _327  and  _328
REMARK  128  A    between atoms: _330  and  _332
REMARK  129  A    between atoms: _332  and  _333
REMARK  130  A    between atoms: _332  and  _335
REMARK  131  A    between atoms: _335  and  _336
REMARK  132  A    between atoms: _336  and  _337
REMARK  133  A    between atoms: _337  and  _338
REMARK  134  A    between atoms: _338  and  _339
REMARK  135  A    between atoms: _343  and  _345
REMARK  136  A    between atoms: _345  and  _346
REMARK  137  A    between atoms: _345  and  _348
REMARK  138  A    between atoms: _348  and  _349
REMARK  139  A    between atoms: _349  and  _350
REMARK  140  A    between atoms: _353  and  _355
REMARK  141  A    between atoms: _355  and  _356
REMARK  142  A    between atoms: _355  and  _358
REMARK  143  A    between atoms: _358  and  _359
REMARK  144  A    between atoms: _365  and  _367
REMARK  145  A    between atoms: _367  and  _368
REMARK  146  A    between atoms: _367  and  _370
REMARK  147  A    between atoms: _370  and  _371
REMARK  148  A    between atoms: _376  and  _378
REMARK  149  A    between atoms: _378  and  _379
REMARK  150  A    between atoms: _378  and  _381
REMARK  151  A    between atoms: _381  and  _382
REMARK  152  A    between atoms: _387  and  _389
REMARK  153  A    between atoms: _389  and  _390
REMARK  154  A    between atoms: _389  and  _392
REMARK  155  A    between atoms: _392  and  _393
REMARK  156  A    between atoms: _403  and  _405
REMARK  157  A    between atoms: _405  and  _406
REMARK  158  A    between atoms: _405  and  _408
REMARK  159  A    between atoms: _408  and  _409
REMARK  160  A    between atoms: _409  and  _410
REMARK  161  A    between atoms: _415  and  _417
REMARK  162  A    between atoms: _417  and  _418
REMARK  163  A    between atoms: _417  and  _420
REMARK  164  A    between atoms: _420  and  _421
REMARK  165  A    between atoms: _426  and  _428
REMARK  166  A    between atoms: _428  and  _429
REMARK  167  A    between atoms: _428  and  _431
REMARK  168  A    between atoms: _431  and  _432
REMARK  169  A    between atoms: _435  and  _437
REMARK  170  A    between atoms: _437  and  _438
REMARK  171  A    between atoms: _437  and  _440
REMARK  172  A    between atoms: _440  and  _441
REMARK  173  A    between atoms: _444  and  _446
REMARK  174  A    between atoms: _446  and  _447
REMARK  175  A    between atoms: _449  and  _451
REMARK  176  A    between atoms: _451  and  _452
REMARK  177  A    between atoms: _451  and  _454
REMARK  178  A    between atoms: _454  and  _455
REMARK  179  A    between atoms: _455  and  _456
REMARK                            x       y       z     vdW  Elec       q    Type
REMARK                         _______ _______ _______ _____ _____    ______ ____
ROOT
ATOM      1  CG  TRP A   1      18.734  44.741  92.032  0.00  0.00    -0.002 A 
ATOM      2  CD1 TRP A   1      17.387  44.625  92.155  0.00  0.00    +0.068 A 
ATOM      3  NE1 TRP A   1      16.960  43.443  91.626  0.00  0.00    -0.352 N 
ATOM      4  HE1 TRP A   1      15.971  43.123  91.587  0.00  0.00    +0.166 HD
ATOM      5  CE2 TRP A   1      18.036  42.746  91.156  0.00  0.00    +0.056 A 
ATOM      6  CZ2 TRP A   1      18.100  41.463  90.558  0.00  0.00    +0.017 A 
ATOM      7  CH2 TRP A   1      19.347  40.999  90.196  0.00  0.00    +0.001 A 
ATOM      8  CZ3 TRP A   1      20.528  41.798  90.413  0.00  0.00    +0.000 A 
ATOM      9  CE3 TRP A   1      20.449  43.048  91.039  0.00  0.00    +0.001 A 
ATOM     10  CD2 TRP A   1      19.188  43.535  91.416  0.00  0.00    +0.013 A 
ENDROOT
BRANCH   1  11
ATOM     11  CB  TRP A   1      19.553  45.904  92.444  0.00  0.00    +0.053 C 
BRANCH  11  12
ATOM     12  CA  TRP A   1      20.546  45.615  93.523  0.00  0.00    +0.137 C 
BRANCH  12  13
ATOM     13  N   TRP A   1      19.878  45.240  94.764  0.00  0.00    -0.239 NA
ATOM     14  H   TRP A   1      18.839  45.245  94.816  0.00  0.00    +0.142 HD
ENDBRANCH  12  13
BRANCH  12  15
ATOM     15  C   TRP A   1      21.451  46.813  93.700  0.00  0.00    +0.224 C 
ATOM     16  O   TRP A   1      22.406  46.970  92.945  0.00  0.00    -0.287 OA
ENDBRANCH  12  15
ENDBRANCH  11  12
ENDBRANCH   1  11
TORSDOF 4
REMARK  Name = ../refined-set-2016/3qfz/3qfz_pocket.pdb
REMARK  179 active torsions:
REMARK  status: ('A' for Active; 'I' for Inactive)
REMARK    1  A    between atoms: _1  and  _3
REMARK    2  A    between atoms: _3  and  _4
REMARK    3  A    between atoms: _3  and  _6
REMARK    4  A    between atoms: _6  and  _7
REMARK    5  A    between atoms: _9  and  _11
REMARK    6  A    between atoms: _11  and  _12
REMARK    7  A    between atoms: _11  and  _14
REMARK    8  A    between atoms: _14  and  _15
REMARK    9  A    between atoms: _15  and  _16
REMARK   10  A    between atoms: _16  and  _17
REMARK   11  A    between atoms: _26  and  _28
REMARK   12  A    between atoms: _28  and  _29
REMARK   13  A    between atoms: _28  and  _31
REMARK   14  A    between atoms: _31  and  _32
REMARK   15  A    between atoms: _34  and  _36
REMARK   16  A    between atoms: _36  and  _37
REMARK   17  A    between atoms: _36  and  _39
REMARK   18  A    between atoms: _39  and  _40
REMARK   19  A    between atoms: _40  and  _41
REMARK   20  A    between atoms: _44  and  _46
REMARK   21  A    between atoms: _46  and  _47
REMARK   22  A    between atoms: _46  and  _49
REMARK   23  A    between atoms: _49  and  _50
REMARK   24  A    between atoms: _50  and  _51
REMARK   25  A    between atoms: _51  and  _52
REMARK   26  A    between atoms: _61  and  _63
REMARK   27  A    between atoms: _63  and  _64
REMARK   28  A    between atoms: _66  and  _68
REMARK   29  A    between atoms: _68  and  _69
REMARK   30  A    between atoms: _68  and  _71
REMARK   31  A    between atoms: _71  and  _72
REMARK   32  A    between atoms: _78  and  _80
REMARK   33  A    between atoms: _80  and  _81
REMARK   34  A    between atoms: _80  and  _83
REMARK   35  A    between atoms: _84  and  _85
REMARK   36  A    between atoms: _85  and  _86
REMARK   37  A    between atoms: _95  and  _97
REMARK   38  A    between atoms: _97  and  _98
REMARK   39  A    between atoms: _97  and  _100
REMARK   40  A    between atoms: _100  and  _101
REMARK   41  A    between atoms: _104  and  _106
REMARK   42  A    between atoms: _106  and  _107
REMARK   43  A    between atoms: _106  and  _109
REMARK   44  A    between atoms: _109  and  _110
REMARK   45  A    between atoms: _112  and  _114
REMARK   46  A    between atoms: _114  and  _115
REMARK   47  A    between atoms: _114  and  _117
REMARK   48  A    between atoms: _117  and  _118
REMARK   49  A    between atoms: _118  and  _119
REMARK   50  A    between atoms: _124  and  _126
REMARK   51  A    between atoms: _126  and  _127
REMARK   52  A    between atoms: _126  and  _129
REMARK   53  A    between atoms: _129  and  _130
REMARK   54  A    between atoms: _135  and  _137
REMARK   55  A    between atoms: _137  and  _138
REMARK   56  A    between atoms: _137  and  _140
REMARK   57  A    between atoms: _140  and  _141
REMARK   58  A    between atoms: _144  and  _146
REMARK   59  A    between atoms: _146  and  _147
REMARK   60  A    between atoms: _146  and  _149
REMARK   61  A    between atoms: _149  and  _150
REMARK   62  A    between atoms: _156  and  _158
REMARK   63  A    between atoms: _158  and  _159
REMARK   64  A    between atoms: _158  and  _161
REMARK   65  A    between atoms: _161  and  _162
REMARK   66  A    between atoms: _165  and  _167
REMARK   67  A    between atoms: _167  and  _168
REMARK   68  A    between atoms: _167  and  _170
REMARK   69  A    between atoms: _170  and  _171
REMARK   70  A    between atoms: _174  and  _176
REMARK   71  A    between atoms: _176  and  _177
REMARK   72  A    between atoms: _176  and  _179
REMARK   73  A    between atoms: _179  and  _180
REMARK   74  A    between atoms: _190  and  _192
REMARK   75  A    between atoms: _192  and  _193
REMARK   76  A    between atoms: _196  and  _198
REMARK   77  A    between atoms: _198  and  _199
REMARK   78  A    between atoms: _198  and  _201
REMARK   79  A    between atoms: _201  and  _202
REMARK   80  A    between atoms: _205  and  _207
REMARK   81  A    between atoms: _207  and  _208
REMARK   82  A    between atoms: _207  and  _210
REMARK   83  A    between atoms: _210  and  _211
REMARK   84  A    between atoms: _221  and  _223
REMARK   85  A    between atoms: _223  and  _224
REMARK   86  A    between atoms: _223  and  _226
REMARK   87  A    between atoms: _226  and  _227
REMARK   88  A    between atoms: _232  and  _234
REMARK   89  A    between atoms: _234  and  _235
REMARK   90  A    between atoms: _234  and  _237
REMARK   91  A    between atoms: _237  and  _238
REMARK   92  A    between atoms: _241  and  _243
REMARK   93  A    between atoms: _243  and  _244
REMARK   94  A    between atoms: _243  and  _246
REMARK   95  A    between atoms: _248  and  _250
REMARK   96  A    between atoms: _250  and  _251
REMARK   97  A    between atoms: _250  and  _253
REMARK   98  A    between atoms: _253  and  _254
REMARK   99  A    between atoms: _257  and  _259
REMARK  100  A    between atoms: _259  and  _260
REMARK  101  A    between atoms: _259  and  _262
REMARK  102  A    between atoms: _262  and  _263
REMARK  103  A    between atoms: _268  and  _270
REMARK  104  A    between atoms: _270  and  _271
REMARK  105  A    between atoms: _270  and  _273
REMARK  106  A    between atoms: _273  and  _274
REMARK  107  A    between atoms: _274  and  _275
REMARK  108  A    between atoms: _280  and  _282
REMARK  109  A    between atoms: _282  and  _283
REMARK  110  A    between atoms: _282  and  _285
REMARK  111  A    between atoms: _285  and  _286
REMARK  112  A    between atoms: _286  and  _287
REMARK  113  A    between atoms: _287  and  _288
REMARK  114  A    between atoms: _297  and  _299
REMARK  115  A    between atoms: _299  and  _300
REMARK  116  A    between atoms: _299  and  _302
REMARK  117  A    between atoms: _302  and  _303
REMARK  118  A    between atoms: _303  and  _304
REMARK  119  A    between atoms: _307  and  _309
REMARK  120  A    between atoms: _309  and  _310
REMARK  121  A    between atoms: _309  and  _312
REMARK  122  A    between atoms: _312  and  _313
REMARK  123  A    between atoms: _316  and  _318
REMARK  124  A    between atoms: _318  and  _319
REMARK  125  A    between atoms: _318  and  _321
REMARK  126  A    between atoms: _321  and  _322
REMARK  127  A    between atoms: _327  and  _328
REMARK  128  A    between atoms: _330  and  _332
REMARK  129  A    between atoms: _332  and  _333
REMARK  130  A    between atoms: _332  and  _335
REMARK  131  A    between atoms: _335  and  _336
REMARK  132  A    between atoms: _336  and  _337
REMARK  133  A    between atoms: _337  and  _338
REMARK  134  A    between atoms: _338  and  _339
REMARK  135  A    between atoms: _343  and  _345
REMARK  136  A    between atoms: _345  and  _346
REMARK  137  A    between atoms: _345  and  _348
REMARK  138  A    between atoms: _348  and  _349
REMARK  139  A    between atoms: _349  and  _350
REMARK  140  A    between atoms: _353  and  _355
REMARK  141  A    between atoms: _355  and  _356
REMARK  142  A    between atoms: _355  and  _358
REMARK  143  A    between atoms: _358  and  _359
REMARK  144  A    between atoms: _365  and  _367
REMARK  145  A    between atoms: _367  and  _368
REMARK  146  A    between atoms: _367  and  _370
REMARK  147  A    between atoms: _370  and  _371
REMARK  148  A    between atoms: _376  and  _378
REMARK  149  A    between atoms: _378  and  _379
REMARK  150  A    between atoms: _378  and  _381
REMARK  151  A    between atoms: _381  and  _382
REMARK  152  A    between atoms: _387  and  _389
REMARK  153  A    between atoms: _389  and  _390
REMARK  154  A    between atoms: _389  and  _392
REMARK  155  A    between atoms: _392  and  _393
REMARK  156  A    between atoms: _403  and  _405
REMARK  157  A    between atoms: _405  and  _406
REMARK  158  A    between atoms: _405  and  _408
REMARK  159  A    between atoms: _408  and  _409
REMARK  160  A    between atoms: _409  and  _410
REMARK  161  A    between atoms: _415  and  _417
REMARK  162  A    between atoms: _417  and  _418
REMARK  163  A    between atoms: _417  and  _420
REMARK  164  A    between atoms: _420  and  _421
REMARK  165  A    between atoms: _426  and  _428
REMARK  166  A    between atoms: _428  and  _429
REMARK  167  A    between atoms: _428  and  _431
REMARK  168  A    between atoms: _431  and  _432
REMARK  169  A    between atoms: _435  and  _437
REMARK  170  A    between atoms: _437  and  _438
REMARK  171  A    between atoms: _437  and  _440
REMARK  172  A    between atoms: _440  and  _441
REMARK  173  A    between atoms: _444  and  _446
REMARK  174  A    between atoms: _446  and  _447
REMARK  175  A    between atoms: _449  and  _451
REMARK  176  A    between atoms: _451  and  _452
REMARK  177  A    between atoms: _451  and  _454
REMARK  178  A    between atoms: _454  and  _455
REMARK  179  A    between atoms: _455  and  _456
REMARK                            x       y       z     vdW  Elec       q    Type
REMARK                         _______ _______ _______ _____ _____    ______ ____
ROOT
ATOM      1  CA  ASN A   4       9.678  38.948  88.514  0.00  0.00    +0.158 C 
ENDROOT
BRANCH   1   3
ATOM      2  C   TRP A   3      11.581  40.311  89.121  0.00  0.00    +0.241 C 
ATOM      3  N   ASN A   4      10.830  39.246  89.358  0.00  0.00    -0.297 N 
ATOM      4  H   ASN A   4      11.064  38.617  90.153  0.00  0.00    +0.150 HD
ATOM      5  O   TRP A   3      11.373  41.069  88.183  0.00  0.00    -0.273 OA
BRANCH   2   6
ATOM      6  CA  TRP A   3      12.690  40.580  90.128  0.00  0.00    +0.153 C 
BRANCH   6   8
ATOM      7  C   ASP A   2      11.052  40.768  91.951  0.00  0.00    +0.241 C 
ATOM      8  N   TRP A   3      12.206  40.287  91.483  0.00  0.00    -0.297 N 
ATOM      9  H   TRP A   3      12.784  39.682  92.101  0.00  0.00    +0.150 HD
ATOM     10  O   ASP A   2      10.306  41.492  91.285  0.00  0.00    -0.273 OA
BRANCH   7  11
ATOM     11  CA  ASP A   2      10.663  40.392  93.401  0.00  0.00    +0.160 C 
BRANCH  11  14
ATOM     12  C   ALA A   1       8.465  41.333  93.866  0.00  0.00    +0.238 C 
ATOM     13  O   ALA A   1       8.928  42.284  94.541  0.00  0.00    -0.274 OA
ATOM     14  N   ASP A   2       9.195  40.310  93.446  0.00  0.00    -0.297 N 
ATOM     15  H   ASP A   2       8.722  39.435  93.143  0.00  0.00    +0.150 HD
BRANCH  12  16
ATOM     16  CA  ALA A   1       6.982  41.281  93.580  0.00  0.00    +0.145 C 
ATOM     17  CB  ALA A   1       6.702  41.664  92.139  0.00  0.00    +0.028 C 
BRANCH  16  18
ATOM     18  N   ALA A   1       6.407  42.265  94.515  0.00  0.00    -0.238 NA
ATOM     19  H   ALA A   1       7.061  42.853  95.070  0.00  0.00    +0.142 HD
ENDBRANCH  16  18
ENDBRANCH  12  16
ENDBRANCH  11  14
BRANCH  11  20
ATOM     20  CB  ASP A   2      11.353  39.105  93.881  0.00  0.00    +0.143 C 
BRANCH  20  21
ATOM     21  CG  ASP A   2      10.817  37.866  93.210  0.00  0.00    +0.367 C 
ATOM     22  OD2 ASP A   2      10.816  36.767  93.836  0.00  0.00    -0.246 OA
ATOM     23  OD1 ASP A   2      10.396  37.984  92.041  0.00  0.00    -0.246 OA
ENDBRANCH  20  21
ENDBRANCH  11  20
ENDBRANCH   7  11
ENDBRANCH   6   8
BRANCH   6  24
ATOM     24  CB  TRP A   3      13.945  39.750  89.794  0.00  0.00    +0.057 C 
BRANCH  24  25
ATOM     25  CG  TRP A   3      14.331  39.895  88.368  0.00  0.00    -0.002 A 
ATOM     26  CD1 TRP A   3      15.188  40.803  87.845  0.00  0.00    +0.068 A 
ATOM     27  NE1 TRP A   3      15.260  40.649  86.480  0.00  0.00    -0.352 N 
ATOM     28  CE2 TRP A   3      14.420  39.642  86.090  0.00  0.00    +0.056 A 
ATOM     29  CZ2 TRP A   3      14.145  39.127  84.806  0.00  0.00    +0.017 A 
ATOM     30  CH2 TRP A   3      13.233  38.082  84.716  0.00  0.00    +0.001 A 
ATOM     31  CZ3 TRP A   3      12.611  37.546  85.868  0.00  0.00    +0.000 A 
ATOM     32  CE3 TRP A   3      12.898  38.067  87.153  0.00  0.00    +0.001 A 
ATOM     33  HE1 TRP A   3      15.860  41.211  85.843  0.00  0.00    +0.166 HD
ATOM     34  CD2 TRP A   3      13.810  39.137  87.261  0.00  0.00    +0.013 A 
ENDBRANCH  24  25
ENDBRANCH   6  24
ENDBRANCH   2   6
ENDBRANCH   1   3
BRANCH   1  35
ATOM     35  C   ASN A   4       8.493  39.823  88.893  0.00  0.00    +0.241 C 
ATOM     36  O   ASN A   4       7.792  39.554  89.904  0.00  0.00    -0.273 OA
ATOM     37  N   ASP A   5       8.293  40.882  88.083  0.00  0.00    -0.297 N 
ATOM     38  H   ASP A   5       8.945  41.019  87.285  0.00  0.00    +0.150 HD
BRANCH  37  39
ATOM     39  CA  ASP A   5       7.205  41.853  88.265  0.00  0.00    +0.160 C 
BRANCH  39  40
ATOM     40  C   ASP A   5       5.820  41.227  88.298  0.00  0.00    +0.241 C 
ATOM     41  O   ASP A   5       4.889  41.828  88.810  0.00  0.00    -0.273 OA
ATOM     42  N   CYS A   6       5.663  40.051  87.699  0.00  0.00    -0.296 N 
ATOM     43  H   CYS A   6       6.490  39.565  87.296  0.00  0.00    +0.150 HD
BRANCH  42  44
ATOM     44  CA  CYS A   6       4.366  39.443  87.601  0.00  0.00    +0.160 C 
BRANCH  44  45
ATOM     45  C   CYS A   6       4.076  38.393  88.678  0.00  0.00    +0.242 C 
ATOM     46  N   LEU A   7       5.025  38.147  89.581  0.00  0.00    -0.297 N 
ATOM     47  H   LEU A   7       5.951  38.611  89.484  0.00  0.00    +0.150 HD
ATOM     48  O   CYS A   6       3.008  37.802  88.666  0.00  0.00    -0.273 OA
BRANCH  46  49
ATOM     49  CA  LEU A   7       4.795  37.241  90.704  0.00  0.00    +0.149 C 
BRANCH  49  50
ATOM     50  C   LEU A   7       4.305  38.085  91.850  0.00  0.00    +0.241 C 
ATOM     51  O   LEU A   7       5.095  38.573  92.680  0.00  0.00    -0.273 OA
ATOM     52  N   ASN A   8       2.993  38.302  91.843  0.00  0.00    -0.298 N 
ATOM     53  H   ASN A   8       2.412  37.849  91.109  0.00  0.00    +0.150 HD
BRANCH  52  54
ATOM     54  CA  ASN A   8       2.345  39.151  92.826  0.00  0.00    +0.146 C 
BRANCH  54  55
ATOM     55  C   ASN A   8       1.575  38.288  93.857  0.00  0.00    +0.227 C 
ATOM     56  O   ASN A   8       0.447  37.893  93.621  0.00  0.00    -0.286 OA
ENDBRANCH  54  55
BRANCH  54  57
ATOM     57  CB  ASN A   8       1.436  40.187  92.129  0.00  0.00    +0.112 C 
BRANCH  57  58
ATOM     58  CG  ASN A   8       2.081  40.785  90.884  0.00  0.00    +0.222 C 
ATOM     59  ND2 ASN A   8       3.131  41.546  91.074  0.00  0.00    -0.329 N 
ATOM     60 HD21 ASN A   8       3.472  41.730  92.039  0.00  0.00    +0.145 HD
ATOM     61 HD22 ASN A   8       3.623  41.966  90.260  0.00  0.00    +0.145 HD
ATOM     62  OD1 ASN A   8       1.643  40.541  89.762  0.00  0.00    -0.275 OA
ENDBRANCH  57  58
ENDBRANCH  54  57
ENDBRANCH  52  54
ENDBRANCH  49  50
BRANCH  49  63
ATOM     63  CB  LEU A   7       6.075  36.489  91.092  0.00  0.00    +0.029 C 
BRANCH  63  64
ATOM     64  CG  LEU A   7       5.789  35.351  92.073  0.00  0.00    +0.002 C 
ATOM     65  CD2 LEU A   7       7.061  34.528  92.355  0.00  0.00    +0.000 C 
ATOM     66  CD1 LEU A   7       4.682  34.458  91.503  0.00  0.00    +0.000 C 
ENDBRANCH  63  64
ENDBRANCH  49  63
ENDBRANCH  46  49
ENDBRANCH  44  45
BRANCH  44  67
ATOM     67  CB  CYS A   6       4.177  38.849  86.206  0.00  0.00    +0.098 C 
ATOM     68  SG  CYS A   6       4.229  40.136  84.968  0.00  0.00    -0.080 S 
ENDBRANCH  44  67
ENDBRANCH  42  44
ENDBRANCH  39  40
BRANCH  39  69
ATOM     69  CB  ASP A   5       7.206  42.861  87.122  0.00  0.00    +0.143 C 
BRANCH  69  70
ATOM     70  CG  ASP A   5       8.233  43.981  87.303  0.00  0.00    +0.367 C 
ATOM     71  OD2 ASP A   5       8.647  44.300  88.443  0.00  0.00    -0.246 OA
ATOM     72  OD1 ASP A   5       8.642  44.561  86.255  0.00  0.00    -0.246 OA
ENDBRANCH  69  70
ENDBRANCH  39  69
ENDBRANCH  37  39
ENDBRANCH   1  35
BRANCH   1  73
ATOM     73  CB  ASN A   4       9.361  37.481  88.589  0.00  0.00    +0.114 C 
BRANCH  73  74
ATOM     74  CG  ASN A   4       8.316  37.041  87.590  0.00  0.00    +0.222 C 
ATOM     75  ND2 ASN A   4       8.391  35.735  87.197  0.00  0.00    -0.329 N 
ATOM     76 HD21 ASN A   4       9.157  35.128  87.552  0.00  0.00    +0.145 HD
ATOM     77 HD22 ASN A   4       7.682  35.347  86.542  0.00  0.00    +0.145 HD
ATOM     78  OD1 ASN A   4       7.414  37.826  87.196  0.00  0.00    -0.275 OA
ENDBRANCH  73  74
ENDBRANCH   1  73
TORSDOF 29
REMARK  Name = ../refined-set-2016/3qfz/3qfz_pocket.pdb
REMARK  179 active torsions:
REMARK  status: ('A' for Active; 'I' for Inactive)
REMARK    1  A    between atoms: _1  and  _3
REMARK    2  A    between atoms: _3  and  _4
REMARK    3  A    between atoms: _3  and  _6
REMARK    4  A    between atoms: _6  and  _7
REMARK    5  A    between atoms: _9  and  _11
REMARK    6  A    between atoms: _11  and  _12
REMARK    7  A    between atoms: _11  and  _14
REMARK    8  A    between atoms: _14  and  _15
REMARK    9  A    between atoms: _15  and  _16
REMARK   10  A    between atoms: _16  and  _17
REMARK   11  A    between atoms: _26  and  _28
REMARK   12  A    between atoms: _28  and  _29
REMARK   13  A    between atoms: _28  and  _31
REMARK   14  A    between atoms: _31  and  _32
REMARK   15  A    between atoms: _34  and  _36
REMARK   16  A    between atoms: _36  and  _37
REMARK   17  A    between atoms: _36  and  _39
REMARK   18  A    between atoms: _39  and  _40
REMARK   19  A    between atoms: _40  and  _41
REMARK   20  A    between atoms: _44  and  _46
REMARK   21  A    between atoms: _46  and  _47
REMARK   22  A    between atoms: _46  and  _49
REMARK   23  A    between atoms: _49  and  _50
REMARK   24  A    between atoms: _50  and  _51
REMARK   25  A    between atoms: _51  and  _52
REMARK   26  A    between atoms: _61  and  _63
REMARK   27  A    between atoms: _63  and  _64
REMARK   28  A    between atoms: _66  and  _68
REMARK   29  A    between atoms: _68  and  _69
REMARK   30  A    between atoms: _68  and  _71
REMARK   31  A    between atoms: _71  and  _72
REMARK   32  A    between atoms: _78  and  _80
REMARK   33  A    between atoms: _80  and  _81
REMARK   34  A    between atoms: _80  and  _83
REMARK   35  A    between atoms: _84  and  _85
REMARK   36  A    between atoms: _85  and  _86
REMARK   37  A    between atoms: _95  and  _97
REMARK   38  A    between atoms: _97  and  _98
REMARK   39  A    between atoms: _97  and  _100
REMARK   40  A    between atoms: _100  and  _101
REMARK   41  A    between atoms: _104  and  _106
REMARK   42  A    between atoms: _106  and  _107
REMARK   43  A    between atoms: _106  and  _109
REMARK   44  A    between atoms: _109  and  _110
REMARK   45  A    between atoms: _112  and  _114
REMARK   46  A    between atoms: _114  and  _115
REMARK   47  A    between atoms: _114  and  _117
REMARK   48  A    between atoms: _117  and  _118
REMARK   49  A    between atoms: _118  and  _119
REMARK   50  A    between atoms: _124  and  _126
REMARK   51  A    between atoms: _126  and  _127
REMARK   52  A    between atoms: _126  and  _129
REMARK   53  A    between atoms: _129  and  _130
REMARK   54  A    between atoms: _135  and  _137
REMARK   55  A    between atoms: _137  and  _138
REMARK   56  A    between atoms: _137  and  _140
REMARK   57  A    between atoms: _140  and  _141
REMARK   58  A    between atoms: _144  and  _146
REMARK   59  A    between atoms: _146  and  _147
REMARK   60  A    between atoms: _146  and  _149
REMARK   61  A    between atoms: _149  and  _150
REMARK   62  A    between atoms: _156  and  _158
REMARK   63  A    between atoms: _158  and  _159
REMARK   64  A    between atoms: _158  and  _161
REMARK   65  A    between atoms: _161  and  _162
REMARK   66  A    between atoms: _165  and  _167
REMARK   67  A    between atoms: _167  and  _168
REMARK   68  A    between atoms: _167  and  _170
REMARK   69  A    between atoms: _170  and  _171
REMARK   70  A    between atoms: _174  and  _176
REMARK   71  A    between atoms: _176  and  _177
REMARK   72  A    between atoms: _176  and  _179
REMARK   73  A    between atoms: _179  and  _180
REMARK   74  A    between atoms: _190  and  _192
REMARK   75  A    between atoms: _192  and  _193
REMARK   76  A    between atoms: _196  and  _198
REMARK   77  A    between atoms: _198  and  _199
REMARK   78  A    between atoms: _198  and  _201
REMARK   79  A    between atoms: _201  and  _202
REMARK   80  A    between atoms: _205  and  _207
REMARK   81  A    between atoms: _207  and  _208
REMARK   82  A    between atoms: _207  and  _210
REMARK   83  A    between atoms: _210  and  _211
REMARK   84  A    between atoms: _221  and  _223
REMARK   85  A    between atoms: _223  and  _224
REMARK   86  A    between atoms: _223  and  _226
REMARK   87  A    between atoms: _226  and  _227
REMARK   88  A    between atoms: _232  and  _234
REMARK   89  A    between atoms: _234  and  _235
REMARK   90  A    between atoms: _234  and  _237
REMARK   91  A    between atoms: _237  and  _238
REMARK   92  A    between atoms: _241  and  _243
REMARK   93  A    between atoms: _243  and  _244
REMARK   94  A    between atoms: _243  and  _246
REMARK   95  A    between atoms: _248  and  _250
REMARK   96  A    between atoms: _250  and  _251
REMARK   97  A    between atoms: _250  and  _253
REMARK   98  A    between atoms: _253  and  _254
REMARK   99  A    between atoms: _257  and  _259
REMARK  100  A    between atoms: _259  and  _260
REMARK  101  A    between atoms: _259  and  _262
REMARK  102  A    between atoms: _262  and  _263
REMARK  103  A    between atoms: _268  and  _270
REMARK  104  A    between atoms: _270  and  _271
REMARK  105  A    between atoms: _270  and  _273
REMARK  106  A    between atoms: _273  and  _274
REMARK  107  A    between atoms: _274  and  _275
REMARK  108  A    between atoms: _280  and  _282
REMARK  109  A    between atoms: _282  and  _283
REMARK  110  A    between atoms: _282  and  _285
REMARK  111  A    between atoms: _285  and  _286
REMARK  112  A    between atoms: _286  and  _287
REMARK  113  A    between atoms: _287  and  _288
REMARK  114  A    between atoms: _297  and  _299
REMARK  115  A    between atoms: _299  and  _300
REMARK  116  A    between atoms: _299  and  _302
REMARK  117  A    between atoms: _302  and  _303
REMARK  118  A    between atoms: _303  and  _304
REMARK  119  A    between atoms: _307  and  _309
REMARK  120  A    between atoms: _309  and  _310
REMARK  121  A    between atoms: _309  and  _312
REMARK  122  A    between atoms: _312  and  _313
REMARK  123  A    between atoms: _316  and  _318
REMARK  124  A    between atoms: _318  and  _319
REMARK  125  A    between atoms: _318  and  _321
REMARK  126  A    between atoms: _321  and  _322
REMARK  127  A    between atoms: _327  and  _328
REMARK  128  A    between atoms: _330  and  _332
REMARK  129  A    between atoms: _332  and  _333
REMARK  130  A    between atoms: _332  and  _335
REMARK  131  A    between atoms: _335  and  _336
REMARK  132  A    between atoms: _336  and  _337
REMARK  133  A    between atoms: _337  and  _338
REMARK  134  A    between atoms: _338  and  _339
REMARK  135  A    between atoms: _343  and  _345
REMARK  136  A    between atoms: _345  and  _346
REMARK  137  A    between atoms: _345  and  _348
REMARK  138  A    between atoms: _348  and  _349
REMARK  139  A    between atoms: _349  and  _350
REMARK  140  A    between atoms: _353  and  _355
REMARK  141  A    between atoms: _355  and  _356
REMARK  142  A    between atoms: _355  and  _358
REMARK  143  A    between atoms: _358  and  _359
REMARK  144  A    between atoms: _365  and  _367
REMARK  145  A    between atoms: _367  and  _368
REMARK  146  A    between atoms: _367  and  _370
REMARK  147  A    between atoms: _370  and  _371
REMARK  148  A    between atoms: _376  and  _378
REMARK  149  A    between atoms: _378  and  _379
REMARK  150  A    between atoms: _378  and  _381
REMARK  151  A    between atoms: _381  and  _382
REMARK  152  A    between atoms: _387  and  _389
REMARK  153  A    between atoms: _389  and  _390
REMARK  154  A    between atoms: _389  and  _392
REMARK  155  A    between atoms: _392  and  _393
REMARK  156  A    between atoms: _403  and  _405
REMARK  157  A    between atoms: _405  and  _406
REMARK  158  A    between atoms: _405  and  _408
REMARK  159  A    between atoms: _408  and  _409
REMARK  160  A    between atoms: _409  and  _410
REMARK  161  A    between atoms: _415  and  _417
REMARK  162  A    between atoms: _417  and  _418
REMARK  163  A    between atoms: _417  and  _420
REMARK  164  A    between atoms: _420  and  _421
REMARK  165  A    between atoms: _426  and  _428
REMARK  166  A    between atoms: _428  and  _429
REMARK  167  A    between atoms: _428  and  _431
REMARK  168  A    between atoms: _431  and  _432
REMARK  169  A    between atoms: _435  and  _437
REMARK  170  A    between atoms: _437  and  _438
REMARK  171  A    between atoms: _437  and  _440
REMARK  172  A    between atoms: _440  and  _441
REMARK  173  A    between atoms: _444  and  _446
REMARK  174  A    between atoms: _446  and  _447
REMARK  175  A    between atoms: _449  and  _451
REMARK  176  A    between atoms: _451  and  _452
REMARK  177  A    between atoms: _451  and  _454
REMARK  178  A    between atoms: _454  and  _455
REMARK  179  A    between atoms: _455  and  _456
REMARK                            x       y       z     vdW  Elec       q    Type
REMARK                         _______ _______ _______ _____ _____    ______ ____
ROOT
ATOM      1  CB  GLN A   1       2.735  47.465  87.957  0.00  0.00    +0.035 C 
ENDROOT
BRANCH   1   2
ATOM      2  CA  GLN A   1       1.940  46.915  89.155  0.00  0.00    +0.134 C 
BRANCH   2   3
ATOM      3  N   GLN A   1       0.724  46.210  88.736  0.00  0.00    -0.239 NA
ATOM      4  H   GLN A   1       0.333  46.377  87.787  0.00  0.00    +0.142 HD
ENDBRANCH   2   3
BRANCH   2   5
ATOM      5  C   GLN A   1       1.667  48.004  90.176  0.00  0.00    +0.224 C 
ATOM      6  O   GLN A   1       2.486  48.210  91.064  0.00  0.00    -0.287 OA
ENDBRANCH   2   5
ENDBRANCH   1   2
BRANCH   1   7
ATOM      7  CG  GLN A   1       3.048  46.413  86.927  0.00  0.00    +0.087 C 
BRANCH   7   8
ATOM      8  CD  GLN A   1       3.904  45.288  87.518  0.00  0.00    +0.219 C 
ATOM      9  OE1 GLN A   1       4.956  45.540  88.064  0.00  0.00    -0.275 OA
ATOM     10  NE2 GLN A   1       3.449  44.056  87.389  0.00  0.00    -0.329 N 
ATOM     11 HE21 GLN A   1       3.999  43.257  87.763  0.00  0.00    +0.145 HD
ATOM     12 HE22 GLN A   1       2.540  43.884  86.913  0.00  0.00    +0.145 HD
ENDBRANCH   7   8
ENDBRANCH   1   7
TORSDOF 5
REMARK  Name = ../refined-set-2016/3qfz/3qfz_pocket.pdb
REMARK  179 active torsions:
REMARK  status: ('A' for Active; 'I' for Inactive)
REMARK    1  A    between atoms: _1  and  _3
REMARK    2  A    between atoms: _3  and  _4
REMARK    3  A    between atoms: _3  and  _6
REMARK    4  A    between atoms: _6  and  _7
REMARK    5  A    between atoms: _9  and  _11
REMARK    6  A    between atoms: _11  and  _12
REMARK    7  A    between atoms: _11  and  _14
REMARK    8  A    between atoms: _14  and  _15
REMARK    9  A    between atoms: _15  and  _16
REMARK   10  A    between atoms: _16  and  _17
REMARK   11  A    between atoms: _26  and  _28
REMARK   12  A    between atoms: _28  and  _29
REMARK   13  A    between atoms: _28  and  _31
REMARK   14  A    between atoms: _31  and  _32
REMARK   15  A    between atoms: _34  and  _36
REMARK   16  A    between atoms: _36  and  _37
REMARK   17  A    between atoms: _36  and  _39
REMARK   18  A    between atoms: _39  and  _40
REMARK   19  A    between atoms: _40  and  _41
REMARK   20  A    between atoms: _44  and  _46
REMARK   21  A    between atoms: _46  and  _47
REMARK   22  A    between atoms: _46  and  _49
REMARK   23  A    between atoms: _49  and  _50
REMARK   24  A    between atoms: _50  and  _51
REMARK   25  A    between atoms: _51  and  _52
REMARK   26  A    between atoms: _61  and  _63
REMARK   27  A    between atoms: _63  and  _64
REMARK   28  A    between atoms: _66  and  _68
REMARK   29  A    between atoms: _68  and  _69
REMARK   30  A    between atoms: _68  and  _71
REMARK   31  A    between atoms: _71  and  _72
REMARK   32  A    between atoms: _78  and  _80
REMARK   33  A    between atoms: _80  and  _81
REMARK   34  A    between atoms: _80  and  _83
REMARK   35  A    between atoms: _84  and  _85
REMARK   36  A    between atoms: _85  and  _86
REMARK   37  A    between atoms: _95  and  _97
REMARK   38  A    between atoms: _97  and  _98
REMARK   39  A    between atoms: _97  and  _100
REMARK   40  A    between atoms: _100  and  _101
REMARK   41  A    between atoms: _104  and  _106
REMARK   42  A    between atoms: _106  and  _107
REMARK   43  A    between atoms: _106  and  _109
REMARK   44  A    between atoms: _109  and  _110
REMARK   45  A    between atoms: _112  and  _114
REMARK   46  A    between atoms: _114  and  _115
REMARK   47  A    between atoms: _114  and  _117
REMARK   48  A    between atoms: _117  and  _118
REMARK   49  A    between atoms: _118  and  _119
REMARK   50  A    between atoms: _124  and  _126
REMARK   51  A    between atoms: _126  and  _127
REMARK   52  A    between atoms: _126  and  _129
REMARK   53  A    between atoms: _129  and  _130
REMARK   54  A    between atoms: _135  and  _137
REMARK   55  A    between atoms: _137  and  _138
REMARK   56  A    between atoms: _137  and  _140
REMARK   57  A    between atoms: _140  and  _141
REMARK   58  A    between atoms: _144  and  _146
REMARK   59  A    between atoms: _146  and  _147
REMARK   60  A    between atoms: _146  and  _149
REMARK   61  A    between atoms: _149  and  _150
REMARK   62  A    between atoms: _156  and  _158
REMARK   63  A    between atoms: _158  and  _159
REMARK   64  A    between atoms: _158  and  _161
REMARK   65  A    between atoms: _161  and  _162
REMARK   66  A    between atoms: _165  and  _167
REMARK   67  A    between atoms: _167  and  _168
REMARK   68  A    between atoms: _167  and  _170
REMARK   69  A    between atoms: _170  and  _171
REMARK   70  A    between atoms: _174  and  _176
REMARK   71  A    between atoms: _176  and  _177
REMARK   72  A    between atoms: _176  and  _179
REMARK   73  A    between atoms: _179  and  _180
REMARK   74  A    between atoms: _190  and  _192
REMARK   75  A    between atoms: _192  and  _193
REMARK   76  A    between atoms: _196  and  _198
REMARK   77  A    between atoms: _198  and  _199
REMARK   78  A    between atoms: _198  and  _201
REMARK   79  A    between atoms: _201  and  _202
REMARK   80  A    between atoms: _205  and  _207
REMARK   81  A    between atoms: _207  and  _208
REMARK   82  A    between atoms: _207  and  _210
REMARK   83  A    between atoms: _210  and  _211
REMARK   84  A    between atoms: _221  and  _223
REMARK   85  A    between atoms: _223  and  _224
REMARK   86  A    between atoms: _223  and  _226
REMARK   87  A    between atoms: _226  and  _227
REMARK   88  A    between atoms: _232  and  _234
REMARK   89  A    between atoms: _234  and  _235
REMARK   90  A    between atoms: _234  and  _237
REMARK   91  A    between atoms: _237  and  _238
REMARK   92  A    between atoms: _241  and  _243
REMARK   93  A    between atoms: _243  and  _244
REMARK   94  A    between atoms: _243  and  _246
REMARK   95  A    between atoms: _248  and  _250
REMARK   96  A    between atoms: _250  and  _251
REMARK   97  A    between atoms: _250  and  _253
REMARK   98  A    between atoms: _253  and  _254
REMARK   99  A    between atoms: _257  and  _259
REMARK  100  A    between atoms: _259  and  _260
REMARK  101  A    between atoms: _259  and  _262
REMARK  102  A    between atoms: _262  and  _263
REMARK  103  A    between atoms: _268  and  _270
REMARK  104  A    between atoms: _270  and  _271
REMARK  105  A    between atoms: _270  and  _273
REMARK  106  A    between atoms: _273  and  _274
REMARK  107  A    between atoms: _274  and  _275
REMARK  108  A    between atoms: _280  and  _282
REMARK  109  A    between atoms: _282  and  _283
REMARK  110  A    between atoms: _282  and  _285
REMARK  111  A    between atoms: _285  and  _286
REMARK  112  A    between atoms: _286  and  _287
REMARK  113  A    between atoms: _287  and  _288
REMARK  114  A    between atoms: _297  and  _299
REMARK  115  A    between atoms: _299  and  _300
REMARK  116  A    between atoms: _299  and  _302
REMARK  117  A    between atoms: _302  and  _303
REMARK  118  A    between atoms: _303  and  _304
REMARK  119  A    between atoms: _307  and  _309
REMARK  120  A    between atoms: _309  and  _310
REMARK  121  A    between atoms: _309  and  _312
REMARK  122  A    between atoms: _312  and  _313
REMARK  123  A    between atoms: _316  and  _318
REMARK  124  A    between atoms: _318  and  _319
REMARK  125  A    between atoms: _318  and  _321
REMARK  126  A    between atoms: _321  and  _322
REMARK  127  A    between atoms: _327  and  _328
REMARK  128  A    between atoms: _330  and  _332
REMARK  129  A    between atoms: _332  and  _333
REMARK  130  A    between atoms: _332  and  _335
REMARK  131  A    between atoms: _335  and  _336
REMARK  132  A    between atoms: _336  and  _337
REMARK  133  A    between atoms: _337  and  _338
REMARK  134  A    between atoms: _338  and  _339
REMARK  135  A    between atoms: _343  and  _345
REMARK  136  A    between atoms: _345  and  _346
REMARK  137  A    between atoms: _345  and  _348
REMARK  138  A    between atoms: _348  and  _349
REMARK  139  A    between atoms: _349  and  _350
REMARK  140  A    between atoms: _353  and  _355
REMARK  141  A    between atoms: _355  and  _356
REMARK  142  A    between atoms: _355  and  _358
REMARK  143  A    between atoms: _358  and  _359
REMARK  144  A    between atoms: _365  and  _367
REMARK  145  A    between atoms: _367  and  _368
REMARK  146  A    between atoms: _367  and  _370
REMARK  147  A    between atoms: _370  and  _371
REMARK  148  A    between atoms: _376  and  _378
REMARK  149  A    between atoms: _378  and  _379
REMARK  150  A    between atoms: _378  and  _381
REMARK  151  A    between atoms: _381  and  _382
REMARK  152  A    between atoms: _387  and  _389
REMARK  153  A    between atoms: _389  and  _390
REMARK  154  A    between atoms: _389  and  _392
REMARK  155  A    between atoms: _392  and  _393
REMARK  156  A    between atoms: _403  and  _405
REMARK  157  A    between atoms: _405  and  _406
REMARK  158  A    between atoms: _405  and  _408
REMARK  159  A    between atoms: _408  and  _409
REMARK  160  A    between atoms: _409  and  _410
REMARK  161  A    between atoms: _415  and  _417
REMARK  162  A    between atoms: _417  and  _418
REMARK  163  A    between atoms: _417  and  _420
REMARK  164  A    between atoms: _420  and  _421
REMARK  165  A    between atoms: _426  and  _428
REMARK  166  A    between atoms: _428  and  _429
REMARK  167  A    between atoms: _428  and  _431
REMARK  168  A    between atoms: _431  and  _432
REMARK  169  A    between atoms: _435  and  _437
REMARK  170  A    between atoms: _437  and  _438
REMARK  171  A    between atoms: _437  and  _440
REMARK  172  A    between atoms: _440  and  _441
REMARK  173  A    between atoms: _444  and  _446
REMARK  174  A    between atoms: _446  and  _447
REMARK  175  A    between atoms: _449  and  _451
REMARK  176  A    between atoms: _451  and  _452
REMARK  177  A    between atoms: _451  and  _454
REMARK  178  A    between atoms: _454  and  _455
REMARK  179  A    between atoms: _455  and  _456
REMARK                            x       y       z     vdW  Elec       q    Type
REMARK                         _______ _______ _______ _____ _____    ______ ____
ROOT
ATOM      1  NE  ARG A   1      10.629  32.939  90.652  0.00  0.00    -0.265 N 
ATOM      2  CZ  ARG A   1      10.548  34.078  91.333  0.00  0.00    +0.342 C 
ATOM      3  NH2 ARG A   1      10.517  34.043  92.668  0.00  0.00    -0.292 N 
ATOM      4 HH21 ARG A   1      10.454  34.928  93.210  0.00  0.00    +0.255 HD
ATOM      5 HH22 ARG A   1      10.556  33.130  93.165  0.00  0.00    +0.255 HD
ATOM      6  NH1 ARG A   1      10.507  35.247  90.679  0.00  0.00    -0.292 N 
ATOM      7 HH11 ARG A   1      10.444  36.138  91.211  0.00  0.00    +0.255 HD
ATOM      8 HH12 ARG A   1      10.539  35.263  89.640  0.00  0.00    +0.255 HD
ATOM      9  HE  ARG A   1      10.682  32.994  89.615  0.00  0.00    +0.259 HD
ENDROOT
BRANCH   1  10
ATOM     10  CD  ARG A   1      10.648  31.624  91.266  0.00  0.00    +0.174 C 
BRANCH  10  11
ATOM     11  CG  ARG A   1       9.246  31.182  91.701  0.00  0.00    +0.045 C 
BRANCH  11  12
ATOM     12  CB  ARG A   1       9.274  29.818  92.329  0.00  0.00    +0.029 C 
BRANCH  12  13
ATOM     13  CA  ARG A   1      10.261  29.667  93.495  0.00  0.00    +0.133 C 
BRANCH  13  14
ATOM     14  N   ARG A   1      10.373  28.248  93.866  0.00  0.00    -0.239 NA
ATOM     15  H   ARG A   1       9.554  27.622  93.728  0.00  0.00    +0.142 HD
ENDBRANCH  13  14
BRANCH  13  16
ATOM     16  C   ARG A   1       9.876  30.591  94.669  0.00  0.00    +0.224 C 
ATOM     17  O   ARG A   1      10.403  31.701  94.771  0.00  0.00    -0.287 OA
ENDBRANCH  13  16
ENDBRANCH  12  13
ENDBRANCH  11  12
ENDBRANCH  10  11
ENDBRANCH   1  10
TORSDOF 6
REMARK  Name = ../refined-set-2016/3qfz/3qfz_pocket.pdb
REMARK  179 active torsions:
REMARK  status: ('A' for Active; 'I' for Inactive)
REMARK    1  A    between atoms: _1  and  _3
REMARK    2  A    between atoms: _3  and  _4
REMARK    3  A    between atoms: _3  and  _6
REMARK    4  A    between atoms: _6  and  _7
REMARK    5  A    between atoms: _9  and  _11
REMARK    6  A    between atoms: _11  and  _12
REMARK    7  A    between atoms: _11  and  _14
REMARK    8  A    between atoms: _14  and  _15
REMARK    9  A    between atoms: _15  and  _16
REMARK   10  A    between atoms: _16  and  _17
REMARK   11  A    between atoms: _26  and  _28
REMARK   12  A    between atoms: _28  and  _29
REMARK   13  A    between atoms: _28  and  _31
REMARK   14  A    between atoms: _31  and  _32
REMARK   15  A    between atoms: _34  and  _36
REMARK   16  A    between atoms: _36  and  _37
REMARK   17  A    between atoms: _36  and  _39
REMARK   18  A    between atoms: _39  and  _40
REMARK   19  A    between atoms: _40  and  _41
REMARK   20  A    between atoms: _44  and  _46
REMARK   21  A    between atoms: _46  and  _47
REMARK   22  A    between atoms: _46  and  _49
REMARK   23  A    between atoms: _49  and  _50
REMARK   24  A    between atoms: _50  and  _51
REMARK   25  A    between atoms: _51  and  _52
REMARK   26  A    between atoms: _61  and  _63
REMARK   27  A    between atoms: _63  and  _64
REMARK   28  A    between atoms: _66  and  _68
REMARK   29  A    between atoms: _68  and  _69
REMARK   30  A    between atoms: _68  and  _71
REMARK   31  A    between atoms: _71  and  _72
REMARK   32  A    between atoms: _78  and  _80
REMARK   33  A    between atoms: _80  and  _81
REMARK   34  A    between atoms: _80  and  _83
REMARK   35  A    between atoms: _84  and  _85
REMARK   36  A    between atoms: _85  and  _86
REMARK   37  A    between atoms: _95  and  _97
REMARK   38  A    between atoms: _97  and  _98
REMARK   39  A    between atoms: _97  and  _100
REMARK   40  A    between atoms: _100  and  _101
REMARK   41  A    between atoms: _104  and  _106
REMARK   42  A    between atoms: _106  and  _107
REMARK   43  A    between atoms: _106  and  _109
REMARK   44  A    between atoms: _109  and  _110
REMARK   45  A    between atoms: _112  and  _114
REMARK   46  A    between atoms: _114  and  _115
REMARK   47  A    between atoms: _114  and  _117
REMARK   48  A    between atoms: _117  and  _118
REMARK   49  A    between atoms: _118  and  _119
REMARK   50  A    between atoms: _124  and  _126
REMARK   51  A    between atoms: _126  and  _127
REMARK   52  A    between atoms: _126  and  _129
REMARK   53  A    between atoms: _129  and  _130
REMARK   54  A    between atoms: _135  and  _137
REMARK   55  A    between atoms: _137  and  _138
REMARK   56  A    between atoms: _137  and  _140
REMARK   57  A    between atoms: _140  and  _141
REMARK   58  A    between atoms: _144  and  _146
REMARK   59  A    between atoms: _146  and  _147
REMARK   60  A    between atoms: _146  and  _149
REMARK   61  A    between atoms: _149  and  _150
REMARK   62  A    between atoms: _156  and  _158
REMARK   63  A    between atoms: _158  and  _159
REMARK   64  A    between atoms: _158  and  _161
REMARK   65  A    between atoms: _161  and  _162
REMARK   66  A    between atoms: _165  and  _167
REMARK   67  A    between atoms: _167  and  _168
REMARK   68  A    between atoms: _167  and  _170
REMARK   69  A    between atoms: _170  and  _171
REMARK   70  A    between atoms: _174  and  _176
REMARK   71  A    between atoms: _176  and  _177
REMARK   72  A    between atoms: _176  and  _179
REMARK   73  A    between atoms: _179  and  _180
REMARK   74  A    between atoms: _190  and  _192
REMARK   75  A    between atoms: _192  and  _193
REMARK   76  A    between atoms: _196  and  _198
REMARK   77  A    between atoms: _198  and  _199
REMARK   78  A    between atoms: _198  and  _201
REMARK   79  A    between atoms: _201  and  _202
REMARK   80  A    between atoms: _205  and  _207
REMARK   81  A    between atoms: _207  and  _208
REMARK   82  A    between atoms: _207  and  _210
REMARK   83  A    between atoms: _210  and  _211
REMARK   84  A    between atoms: _221  and  _223
REMARK   85  A    between atoms: _223  and  _224
REMARK   86  A    between atoms: _223  and  _226
REMARK   87  A    between atoms: _226  and  _227
REMARK   88  A    between atoms: _232  and  _234
REMARK   89  A    between atoms: _234  and  _235
REMARK   90  A    between atoms: _234  and  _237
REMARK   91  A    between atoms: _237  and  _238
REMARK   92  A    between atoms: _241  and  _243
REMARK   93  A    between atoms: _243  and  _244
REMARK   94  A    between atoms: _243  and  _246
REMARK   95  A    between atoms: _248  and  _250
REMARK   96  A    between atoms: _250  and  _251
REMARK   97  A    between atoms: _250  and  _253
REMARK   98  A    between atoms: _253  and  _254
REMARK   99  A    between atoms: _257  and  _259
REMARK  100  A    between atoms: _259  and  _260
REMARK  101  A    between atoms: _259  and  _262
REMARK  102  A    between atoms: _262  and  _263
REMARK  103  A    between atoms: _268  and  _270
REMARK  104  A    between atoms: _270  and  _271
REMARK  105  A    between atoms: _270  and  _273
REMARK  106  A    between atoms: _273  and  _274
REMARK  107  A    between atoms: _274  and  _275
REMARK  108  A    between atoms: _280  and  _282
REMARK  109  A    between atoms: _282  and  _283
REMARK  110  A    between atoms: _282  and  _285
REMARK  111  A    between atoms: _285  and  _286
REMARK  112  A    between atoms: _286  and  _287
REMARK  113  A    between atoms: _287  and  _288
REMARK  114  A    between atoms: _297  and  _299
REMARK  115  A    between atoms: _299  and  _300
REMARK  116  A    between atoms: _299  and  _302
REMARK  117  A    between atoms: _302  and  _303
REMARK  118  A    between atoms: _303  and  _304
REMARK  119  A    between atoms: _307  and  _309
REMARK  120  A    between atoms: _309  and  _310
REMARK  121  A    between atoms: _309  and  _312
REMARK  122  A    between atoms: _312  and  _313
REMARK  123  A    between atoms: _316  and  _318
REMARK  124  A    between atoms: _318  and  _319
REMARK  125  A    between atoms: _318  and  _321
REMARK  126  A    between atoms: _321  and  _322
REMARK  127  A    between atoms: _327  and  _328
REMARK  128  A    between atoms: _330  and  _332
REMARK  129  A    between atoms: _332  and  _333
REMARK  130  A    between atoms: _332  and  _335
REMARK  131  A    between atoms: _335  and  _336
REMARK  132  A    between atoms: _336  and  _337
REMARK  133  A    between atoms: _337  and  _338
REMARK  134  A    between atoms: _338  and  _339
REMARK  135  A    between atoms: _343  and  _345
REMARK  136  A    between atoms: _345  and  _346
REMARK  137  A    between atoms: _345  and  _348
REMARK  138  A    between atoms: _348  and  _349
REMARK  139  A    between atoms: _349  and  _350
REMARK  140  A    between atoms: _353  and  _355
REMARK  141  A    between atoms: _355  and  _356
REMARK  142  A    between atoms: _355  and  _358
REMARK  143  A    between atoms: _358  and  _359
REMARK  144  A    between atoms: _365  and  _367
REMARK  145  A    between atoms: _367  and  _368
REMARK  146  A    between atoms: _367  and  _370
REMARK  147  A    between atoms: _370  and  _371
REMARK  148  A    between atoms: _376  and  _378
REMARK  149  A    between atoms: _378  and  _379
REMARK  150  A    between atoms: _378  and  _381
REMARK  151  A    between atoms: _381  and  _382
REMARK  152  A    between atoms: _387  and  _389
REMARK  153  A    between atoms: _389  and  _390
REMARK  154  A    between atoms: _389  and  _392
REMARK  155  A    between atoms: _392  and  _393
REMARK  156  A    between atoms: _403  and  _405
REMARK  157  A    between atoms: _405  and  _406
REMARK  158  A    between atoms: _405  and  _408
REMARK  159  A    between atoms: _408  and  _409
REMARK  160  A    between atoms: _409  and  _410
REMARK  161  A    between atoms: _415  and  _417
REMARK  162  A    between atoms: _417  and  _418
REMARK  163  A    between atoms: _417  and  _420
REMARK  164  A    between atoms: _420  and  _421
REMARK  165  A    between atoms: _426  and  _428
REMARK  166  A    between atoms: _428  and  _429
REMARK  167  A    between atoms: _428  and  _431
REMARK  168  A    between atoms: _431  and  _432
REMARK  169  A    between atoms: _435  and  _437
REMARK  170  A    between atoms: _437  and  _438
REMARK  171  A    between atoms: _437  and  _440
REMARK  172  A    between atoms: _440  and  _441
REMARK  173  A    between atoms: _444  and  _446
REMARK  174  A    between atoms: _446  and  _447
REMARK  175  A    between atoms: _449  and  _451
REMARK  176  A    between atoms: _451  and  _452
REMARK  177  A    between atoms: _451  and  _454
REMARK  178  A    between atoms: _454  and  _455
REMARK  179  A    between atoms: _455  and  _456
REMARK                            x       y       z     vdW  Elec       q    Type
REMARK                         _______ _______ _______ _____ _____    ______ ____
ROOT
ATOM      1  CA  GLU A   1      15.105  32.441  88.294  0.00  0.00    +0.134 C 
ENDROOT
BRANCH   1   2
ATOM      2  N   GLU A   1      14.336  31.373  87.598  0.00  0.00    -0.239 NA
ATOM      3  H   GLU A   1      13.298  31.434  87.566  0.00  0.00    +0.142 HD
ENDBRANCH   1   2
BRANCH   1   4
ATOM      4  C   GLU A   1      15.938  31.990  89.479  0.00  0.00    +0.224 C 
ATOM      5  O   GLU A   1      17.086  32.366  89.562  0.00  0.00    -0.287 OA
ENDBRANCH   1   4
BRANCH   1   6
ATOM      6  CB  GLU A   1      14.233  33.596  88.760  0.00  0.00    +0.037 C 
BRANCH   6   7
ATOM      7  CG  GLU A   1      13.254  34.100  87.748  0.00  0.00    +0.116 C 
BRANCH   7   8
ATOM      8  CD  GLU A   1      11.853  33.574  87.991  0.00  0.00    +0.365 C 
ATOM      9  OE2 GLU A   1      11.653  32.345  88.079  0.00  0.00    -0.246 OA
ATOM     10  OE1 GLU A   1      10.928  34.407  88.062  0.00  0.00    -0.246 OA
ENDBRANCH   7   8
ENDBRANCH   6   7
ENDBRANCH   1   6
TORSDOF 5
REMARK  Name = ../refined-set-2016/3qfz/3qfz_pocket.pdb
REMARK  179 active torsions:
REMARK  status: ('A' for Active; 'I' for Inactive)
REMARK    1  A    between atoms: _1  and  _3
REMARK    2  A    between atoms: _3  and  _4
REMARK    3  A    between atoms: _3  and  _6
REMARK    4  A    between atoms: _6  and  _7
REMARK    5  A    between atoms: _9  and  _11
REMARK    6  A    between atoms: _11  and  _12
REMARK    7  A    between atoms: _11  and  _14
REMARK    8  A    between atoms: _14  and  _15
REMARK    9  A    between atoms: _15  and  _16
REMARK   10  A    between atoms: _16  and  _17
REMARK   11  A    between atoms: _26  and  _28
REMARK   12  A    between atoms: _28  and  _29
REMARK   13  A    between atoms: _28  and  _31
REMARK   14  A    between atoms: _31  and  _32
REMARK   15  A    between atoms: _34  and  _36
REMARK   16  A    between atoms: _36  and  _37
REMARK   17  A    between atoms: _36  and  _39
REMARK   18  A    between atoms: _39  and  _40
REMARK   19  A    between atoms: _40  and  _41
REMARK   20  A    between atoms: _44  and  _46
REMARK   21  A    between atoms: _46  and  _47
REMARK   22  A    between atoms: _46  and  _49
REMARK   23  A    between atoms: _49  and  _50
REMARK   24  A    between atoms: _50  and  _51
REMARK   25  A    between atoms: _51  and  _52
REMARK   26  A    between atoms: _61  and  _63
REMARK   27  A    between atoms: _63  and  _64
REMARK   28  A    between atoms: _66  and  _68
REMARK   29  A    between atoms: _68  and  _69
REMARK   30  A    between atoms: _68  and  _71
REMARK   31  A    between atoms: _71  and  _72
REMARK   32  A    between atoms: _78  and  _80
REMARK   33  A    between atoms: _80  and  _81
REMARK   34  A    between atoms: _80  and  _83
REMARK   35  A    between atoms: _84  and  _85
REMARK   36  A    between atoms: _85  and  _86
REMARK   37  A    between atoms: _95  and  _97
REMARK   38  A    between atoms: _97  and  _98
REMARK   39  A    between atoms: _97  and  _100
REMARK   40  A    between atoms: _100  and  _101
REMARK   41  A    between atoms: _104  and  _106
REMARK   42  A    between atoms: _106  and  _107
REMARK   43  A    between atoms: _106  and  _109
REMARK   44  A    between atoms: _109  and  _110
REMARK   45  A    between atoms: _112  and  _114
REMARK   46  A    between atoms: _114  and  _115
REMARK   47  A    between atoms: _114  and  _117
REMARK   48  A    between atoms: _117  and  _118
REMARK   49  A    between atoms: _118  and  _119
REMARK   50  A    between atoms: _124  and  _126
REMARK   51  A    between atoms: _126  and  _127
REMARK   52  A    between atoms: _126  and  _129
REMARK   53  A    between atoms: _129  and  _130
REMARK   54  A    between atoms: _135  and  _137
REMARK   55  A    between atoms: _137  and  _138
REMARK   56  A    between atoms: _137  and  _140
REMARK   57  A    between atoms: _140  and  _141
REMARK   58  A    between atoms: _144  and  _146
REMARK   59  A    between atoms: _146  and  _147
REMARK   60  A    between atoms: _146  and  _149
REMARK   61  A    between atoms: _149  and  _150
REMARK   62  A    between atoms: _156  and  _158
REMARK   63  A    between atoms: _158  and  _159
REMARK   64  A    between atoms: _158  and  _161
REMARK   65  A    between atoms: _161  and  _162
REMARK   66  A    between atoms: _165  and  _167
REMARK   67  A    between atoms: _167  and  _168
REMARK   68  A    between atoms: _167  and  _170
REMARK   69  A    between atoms: _170  and  _171
REMARK   70  A    between atoms: _174  and  _176
REMARK   71  A    between atoms: _176  and  _177
REMARK   72  A    between atoms: _176  and  _179
REMARK   73  A    between atoms: _179  and  _180
REMARK   74  A    between atoms: _190  and  _192
REMARK   75  A    between atoms: _192  and  _193
REMARK   76  A    between atoms: _196  and  _198
REMARK   77  A    between atoms: _198  and  _199
REMARK   78  A    between atoms: _198  and  _201
REMARK   79  A    between atoms: _201  and  _202
REMARK   80  A    between atoms: _205  and  _207
REMARK   81  A    between atoms: _207  and  _208
REMARK   82  A    between atoms: _207  and  _210
REMARK   83  A    between atoms: _210  and  _211
REMARK   84  A    between atoms: _221  and  _223
REMARK   85  A    between atoms: _223  and  _224
REMARK   86  A    between atoms: _223  and  _226
REMARK   87  A    between atoms: _226  and  _227
REMARK   88  A    between atoms: _232  and  _234
REMARK   89  A    between atoms: _234  and  _235
REMARK   90  A    between atoms: _234  and  _237
REMARK   91  A    between atoms: _237  and  _238
REMARK   92  A    between atoms: _241  and  _243
REMARK   93  A    between atoms: _243  and  _244
REMARK   94  A    between atoms: _243  and  _246
REMARK   95  A    between atoms: _248  and  _250
REMARK   96  A    between atoms: _250  and  _251
REMARK   97  A    between atoms: _250  and  _253
REMARK   98  A    between atoms: _253  and  _254
REMARK   99  A    between atoms: _257  and  _259
REMARK  100  A    between atoms: _259  and  _260
REMARK  101  A    between atoms: _259  and  _262
REMARK  102  A    between atoms: _262  and  _263
REMARK  103  A    between atoms: _268  and  _270
REMARK  104  A    between atoms: _270  and  _271
REMARK  105  A    between atoms: _270  and  _273
REMARK  106  A    between atoms: _273  and  _274
REMARK  107  A    between atoms: _274  and  _275
REMARK  108  A    between atoms: _280  and  _282
REMARK  109  A    between atoms: _282  and  _283
REMARK  110  A    between atoms: _282  and  _285
REMARK  111  A    between atoms: _285  and  _286
REMARK  112  A    between atoms: _286  and  _287
REMARK  113  A    between atoms: _287  and  _288
REMARK  114  A    between atoms: _297  and  _299
REMARK  115  A    between atoms: _299  and  _300
REMARK  116  A    between atoms: _299  and  _302
REMARK  117  A    between atoms: _302  and  _303
REMARK  118  A    between atoms: _303  and  _304
REMARK  119  A    between atoms: _307  and  _309
REMARK  120  A    between atoms: _309  and  _310
REMARK  121  A    between atoms: _309  and  _312
REMARK  122  A    between atoms: _312  and  _313
REMARK  123  A    between atoms: _316  and  _318
REMARK  124  A    between atoms: _318  and  _319
REMARK  125  A    between atoms: _318  and  _321
REMARK  126  A    between atoms: _321  and  _322
REMARK  127  A    between atoms: _327  and  _328
REMARK  128  A    between atoms: _330  and  _332
REMARK  129  A    between atoms: _332  and  _333
REMARK  130  A    between atoms: _332  and  _335
REMARK  131  A    between atoms: _335  and  _336
REMARK  132  A    between atoms: _336  and  _337
REMARK  133  A    between atoms: _337  and  _338
REMARK  134  A    between atoms: _338  and  _339
REMARK  135  A    between atoms: _343  and  _345
REMARK  136  A    between atoms: _345  and  _346
REMARK  137  A    between atoms: _345  and  _348
REMARK  138  A    between atoms: _348  and  _349
REMARK  139  A    between atoms: _349  and  _350
REMARK  140  A    between atoms: _353  and  _355
REMARK  141  A    between atoms: _355  and  _356
REMARK  142  A    between atoms: _355  and  _358
REMARK  143  A    between atoms: _358  and  _359
REMARK  144  A    between atoms: _365  and  _367
REMARK  145  A    between atoms: _367  and  _368
REMARK  146  A    between atoms: _367  and  _370
REMARK  147  A    between atoms: _370  and  _371
REMARK  148  A    between atoms: _376  and  _378
REMARK  149  A    between atoms: _378  and  _379
REMARK  150  A    between atoms: _378  and  _381
REMARK  151  A    between atoms: _381  and  _382
REMARK  152  A    between atoms: _387  and  _389
REMARK  153  A    between atoms: _389  and  _390
REMARK  154  A    between atoms: _389  and  _392
REMARK  155  A    between atoms: _392  and  _393
REMARK  156  A    between atoms: _403  and  _405
REMARK  157  A    between atoms: _405  and  _406
REMARK  158  A    between atoms: _405  and  _408
REMARK  159  A    between atoms: _408  and  _409
REMARK  160  A    between atoms: _409  and  _410
REMARK  161  A    between atoms: _415  and  _417
REMARK  162  A    between atoms: _417  and  _418
REMARK  163  A    between atoms: _417  and  _420
REMARK  164  A    between atoms: _420  and  _421
REMARK  165  A    between atoms: _426  and  _428
REMARK  166  A    between atoms: _428  and  _429
REMARK  167  A    between atoms: _428  and  _431
REMARK  168  A    between atoms: _431  and  _432
REMARK  169  A    between atoms: _435  and  _437
REMARK  170  A    between atoms: _437  and  _438
REMARK  171  A    between atoms: _437  and  _440
REMARK  172  A    between atoms: _440  and  _441
REMARK  173  A    between atoms: _444  and  _446
REMARK  174  A    between atoms: _446  and  _447
REMARK  175  A    between atoms: _449  and  _451
REMARK  176  A    between atoms: _451  and  _452
REMARK  177  A    between atoms: _451  and  _454
REMARK  178  A    between atoms: _454  and  _455
REMARK  179  A    between atoms: _455  and  _456
REMARK                            x       y       z     vdW  Elec       q    Type
REMARK                         _______ _______ _______ _____ _____    ______ ____
ROOT
ATOM      1  CA  LEU A   1      10.806  31.176  82.486  0.00  0.00    +0.133 C 
ENDROOT
BRANCH   1   2
ATOM      2  N   LEU A   1      10.708  30.753  81.086  0.00  0.00    -0.239 NA
ATOM      3  H   LEU A   1       9.965  31.152  80.478  0.00  0.00    +0.142 HD
ENDBRANCH   1   2
BRANCH   1   4
ATOM      4  C   LEU A   1      10.320  30.108  83.488  0.00  0.00    +0.224 C 
ATOM      5  O   LEU A   1      10.887  29.929  84.562  0.00  0.00    -0.287 OA
ENDBRANCH   1   4
BRANCH   1   6
ATOM      6  CB  LEU A   1      10.071  32.521  82.691  0.00  0.00    +0.025 C 
BRANCH   6   7
ATOM      7  CG  LEU A   1      10.310  33.378  83.952  0.00  0.00    +0.002 C 
ATOM      8  CD2 LEU A   1       9.419  32.894  85.081  0.00  0.00    +0.000 C 
ATOM      9  CD1 LEU A   1       9.993  34.833  83.652  0.00  0.00    +0.000 C 
ENDBRANCH   6   7
ENDBRANCH   1   6
TORSDOF 4
REMARK  Name = ../refined-set-2016/3qfz/3qfz_pocket.pdb
REMARK  179 active torsions:
REMARK  status: ('A' for Active; 'I' for Inactive)
REMARK    1  A    between atoms: _1  and  _3
REMARK    2  A    between atoms: _3  and  _4
REMARK    3  A    between atoms: _3  and  _6
REMARK    4  A    between atoms: _6  and  _7
REMARK    5  A    between atoms: _9  and  _11
REMARK    6  A    between atoms: _11  and  _12
REMARK    7  A    between atoms: _11  and  _14
REMARK    8  A    between atoms: _14  and  _15
REMARK    9  A    between atoms: _15  and  _16
REMARK   10  A    between atoms: _16  and  _17
REMARK   11  A    between atoms: _26  and  _28
REMARK   12  A    between atoms: _28  and  _29
REMARK   13  A    between atoms: _28  and  _31
REMARK   14  A    between atoms: _31  and  _32
REMARK   15  A    between atoms: _34  and  _36
REMARK   16  A    between atoms: _36  and  _37
REMARK   17  A    between atoms: _36  and  _39
REMARK   18  A    between atoms: _39  and  _40
REMARK   19  A    between atoms: _40  and  _41
REMARK   20  A    between atoms: _44  and  _46
REMARK   21  A    between atoms: _46  and  _47
REMARK   22  A    between atoms: _46  and  _49
REMARK   23  A    between atoms: _49  and  _50
REMARK   24  A    between atoms: _50  and  _51
REMARK   25  A    between atoms: _51  and  _52
REMARK   26  A    between atoms: _61  and  _63
REMARK   27  A    between atoms: _63  and  _64
REMARK   28  A    between atoms: _66  and  _68
REMARK   29  A    between atoms: _68  and  _69
REMARK   30  A    between atoms: _68  and  _71
REMARK   31  A    between atoms: _71  and  _72
REMARK   32  A    between atoms: _78  and  _80
REMARK   33  A    between atoms: _80  and  _81
REMARK   34  A    between atoms: _80  and  _83
REMARK   35  A    between atoms: _84  and  _85
REMARK   36  A    between atoms: _85  and  _86
REMARK   37  A    between atoms: _95  and  _97
REMARK   38  A    between atoms: _97  and  _98
REMARK   39  A    between atoms: _97  and  _100
REMARK   40  A    between atoms: _100  and  _101
REMARK   41  A    between atoms: _104  and  _106
REMARK   42  A    between atoms: _106  and  _107
REMARK   43  A    between atoms: _106  and  _109
REMARK   44  A    between atoms: _109  and  _110
REMARK   45  A    between atoms: _112  and  _114
REMARK   46  A    between atoms: _114  and  _115
REMARK   47  A    between atoms: _114  and  _117
REMARK   48  A    between atoms: _117  and  _118
REMARK   49  A    between atoms: _118  and  _119
REMARK   50  A    between atoms: _124  and  _126
REMARK   51  A    between atoms: _126  and  _127
REMARK   52  A    between atoms: _126  and  _129
REMARK   53  A    between atoms: _129  and  _130
REMARK   54  A    between atoms: _135  and  _137
REMARK   55  A    between atoms: _137  and  _138
REMARK   56  A    between atoms: _137  and  _140
REMARK   57  A    between atoms: _140  and  _141
REMARK   58  A    between atoms: _144  and  _146
REMARK   59  A    between atoms: _146  and  _147
REMARK   60  A    between atoms: _146  and  _149
REMARK   61  A    between atoms: _149  and  _150
REMARK   62  A    between atoms: _156  and  _158
REMARK   63  A    between atoms: _158  and  _159
REMARK   64  A    between atoms: _158  and  _161
REMARK   65  A    between atoms: _161  and  _162
REMARK   66  A    between atoms: _165  and  _167
REMARK   67  A    between atoms: _167  and  _168
REMARK   68  A    between atoms: _167  and  _170
REMARK   69  A    between atoms: _170  and  _171
REMARK   70  A    between atoms: _174  and  _176
REMARK   71  A    between atoms: _176  and  _177
REMARK   72  A    between atoms: _176  and  _179
REMARK   73  A    between atoms: _179  and  _180
REMARK   74  A    between atoms: _190  and  _192
REMARK   75  A    between atoms: _192  and  _193
REMARK   76  A    between atoms: _196  and  _198
REMARK   77  A    between atoms: _198  and  _199
REMARK   78  A    between atoms: _198  and  _201
REMARK   79  A    between atoms: _201  and  _202
REMARK   80  A    between atoms: _205  and  _207
REMARK   81  A    between atoms: _207  and  _208
REMARK   82  A    between atoms: _207  and  _210
REMARK   83  A    between atoms: _210  and  _211
REMARK   84  A    between atoms: _221  and  _223
REMARK   85  A    between atoms: _223  and  _224
REMARK   86  A    between atoms: _223  and  _226
REMARK   87  A    between atoms: _226  and  _227
REMARK   88  A    between atoms: _232  and  _234
REMARK   89  A    between atoms: _234  and  _235
REMARK   90  A    between atoms: _234  and  _237
REMARK   91  A    between atoms: _237  and  _238
REMARK   92  A    between atoms: _241  and  _243
REMARK   93  A    between atoms: _243  and  _244
REMARK   94  A    between atoms: _243  and  _246
REMARK   95  A    between atoms: _248  and  _250
REMARK   96  A    between atoms: _250  and  _251
REMARK   97  A    between atoms: _250  and  _253
REMARK   98  A    between atoms: _253  and  _254
REMARK   99  A    between atoms: _257  and  _259
REMARK  100  A    between atoms: _259  and  _260
REMARK  101  A    between atoms: _259  and  _262
REMARK  102  A    between atoms: _262  and  _263
REMARK  103  A    between atoms: _268  and  _270
REMARK  104  A    between atoms: _270  and  _271
REMARK  105  A    between atoms: _270  and  _273
REMARK  106  A    between atoms: _273  and  _274
REMARK  107  A    between atoms: _274  and  _275
REMARK  108  A    between atoms: _280  and  _282
REMARK  109  A    between atoms: _282  and  _283
REMARK  110  A    between atoms: _282  and  _285
REMARK  111  A    between atoms: _285  and  _286
REMARK  112  A    between atoms: _286  and  _287
REMARK  113  A    between atoms: _287  and  _288
REMARK  114  A    between atoms: _297  and  _299
REMARK  115  A    between atoms: _299  and  _300
REMARK  116  A    between atoms: _299  and  _302
REMARK  117  A    between atoms: _302  and  _303
REMARK  118  A    between atoms: _303  and  _304
REMARK  119  A    between atoms: _307  and  _309
REMARK  120  A    between atoms: _309  and  _310
REMARK  121  A    between atoms: _309  and  _312
REMARK  122  A    between atoms: _312  and  _313
REMARK  123  A    between atoms: _316  and  _318
REMARK  124  A    between atoms: _318  and  _319
REMARK  125  A    between atoms: _318  and  _321
REMARK  126  A    between atoms: _321  and  _322
REMARK  127  A    between atoms: _327  and  _328
REMARK  128  A    between atoms: _330  and  _332
REMARK  129  A    between atoms: _332  and  _333
REMARK  130  A    between atoms: _332  and  _335
REMARK  131  A    between atoms: _335  and  _336
REMARK  132  A    between atoms: _336  and  _337
REMARK  133  A    between atoms: _337  and  _338
REMARK  134  A    between atoms: _338  and  _339
REMARK  135  A    between atoms: _343  and  _345
REMARK  136  A    between atoms: _345  and  _346
REMARK  137  A    between atoms: _345  and  _348
REMARK  138  A    between atoms: _348  and  _349
REMARK  139  A    between atoms: _349  and  _350
REMARK  140  A    between atoms: _353  and  _355
REMARK  141  A    between atoms: _355  and  _356
REMARK  142  A    between atoms: _355  and  _358
REMARK  143  A    between atoms: _358  and  _359
REMARK  144  A    between atoms: _365  and  _367
REMARK  145  A    between atoms: _367  and  _368
REMARK  146  A    between atoms: _367  and  _370
REMARK  147  A    between atoms: _370  and  _371
REMARK  148  A    between atoms: _376  and  _378
REMARK  149  A    between atoms: _378  and  _379
REMARK  150  A    between atoms: _378  and  _381
REMARK  151  A    between atoms: _381  and  _382
REMARK  152  A    between atoms: _387  and  _389
REMARK  153  A    between atoms: _389  and  _390
REMARK  154  A    between atoms: _389  and  _392
REMARK  155  A    between atoms: _392  and  _393
REMARK  156  A    between atoms: _403  and  _405
REMARK  157  A    between atoms: _405  and  _406
REMARK  158  A    between atoms: _405  and  _408
REMARK  159  A    between atoms: _408  and  _409
REMARK  160  A    between atoms: _409  and  _410
REMARK  161  A    between atoms: _415  and  _417
REMARK  162  A    between atoms: _417  and  _418
REMARK  163  A    between atoms: _417  and  _420
REMARK  164  A    between atoms: _420  and  _421
REMARK  165  A    between atoms: _426  and  _428
REMARK  166  A    between atoms: _428  and  _429
REMARK  167  A    between atoms: _428  and  _431
REMARK  168  A    between atoms: _431  and  _432
REMARK  169  A    between atoms: _435  and  _437
REMARK  170  A    between atoms: _437  and  _438
REMARK  171  A    between atoms: _437  and  _440
REMARK  172  A    between atoms: _440  and  _441
REMARK  173  A    between atoms: _444  and  _446
REMARK  174  A    between atoms: _446  and  _447
REMARK  175  A    between atoms: _449  and  _451
REMARK  176  A    between atoms: _451  and  _452
REMARK  177  A    between atoms: _451  and  _454
REMARK  178  A    between atoms: _454  and  _455
REMARK  179  A    between atoms: _455  and  _456
REMARK                            x       y       z     vdW  Elec       q    Type
REMARK                         _______ _______ _______ _____ _____    ______ ____
ROOT
ATOM      1  CG  TYR A   1       1.617  37.667  79.993  0.00  0.00    -0.020 A 
ATOM      2  CD2 TYR A   1       2.238  38.064  81.178  0.00  0.00    -0.001 A 
ATOM      3  CE2 TYR A   1       2.708  39.398  81.329  0.00  0.00    +0.036 A 
ATOM      4  CZ  TYR A   1       2.550  40.299  80.275  0.00  0.00    +0.134 A 
ATOM      5  CE1 TYR A   1       1.933  39.934  79.093  0.00  0.00    +0.036 A 
ATOM      6  CD1 TYR A   1       1.468  38.638  78.945  0.00  0.00    -0.001 A 
ENDROOT
BRANCH   4   7
ATOM      7  OH  TYR A   1       2.997  41.572  80.411  0.00  0.00    -0.506 OA
ATOM      8  HH  TYR A   1       3.412  41.681  81.303  0.00  0.00    +0.292 HD
ENDBRANCH   4   7
BRANCH   1   9
ATOM      9  CB  TYR A   1       1.120  36.256  79.812  0.00  0.00    +0.051 C 
BRANCH   9  10
ATOM     10  CA  TYR A   1      -0.397  36.147  79.822  0.00  0.00    +0.137 C 
BRANCH  10  11
ATOM     11  N   TYR A   1      -0.921  36.319  81.191  0.00  0.00    -0.239 NA
ATOM     12  H   TYR A   1      -0.288  36.192  82.006  0.00  0.00    +0.142 HD
ENDBRANCH  10  11
BRANCH  10  13
ATOM     13  C   TYR A   1      -0.764  34.816  79.163  0.00  0.00    +0.224 C 
ATOM     14  O   TYR A   1      -0.634  33.773  79.790  0.00  0.00    -0.287 OA
ENDBRANCH  10  13
ENDBRANCH   9  10
ENDBRANCH   1   9
TORSDOF 5
REMARK  Name = ../refined-set-2016/3qfz/3qfz_pocket.pdb
REMARK  179 active torsions:
REMARK  status: ('A' for Active; 'I' for Inactive)
REMARK    1  A    between atoms: _1  and  _3
REMARK    2  A    between atoms: _3  and  _4
REMARK    3  A    between atoms: _3  and  _6
REMARK    4  A    between atoms: _6  and  _7
REMARK    5  A    between atoms: _9  and  _11
REMARK    6  A    between atoms: _11  and  _12
REMARK    7  A    between atoms: _11  and  _14
REMARK    8  A    between atoms: _14  and  _15
REMARK    9  A    between atoms: _15  and  _16
REMARK   10  A    between atoms: _16  and  _17
REMARK   11  A    between atoms: _26  and  _28
REMARK   12  A    between atoms: _28  and  _29
REMARK   13  A    between atoms: _28  and  _31
REMARK   14  A    between atoms: _31  and  _32
REMARK   15  A    between atoms: _34  and  _36
REMARK   16  A    between atoms: _36  and  _37
REMARK   17  A    between atoms: _36  and  _39
REMARK   18  A    between atoms: _39  and  _40
REMARK   19  A    between atoms: _40  and  _41
REMARK   20  A    between atoms: _44  and  _46
REMARK   21  A    between atoms: _46  and  _47
REMARK   22  A    between atoms: _46  and  _49
REMARK   23  A    between atoms: _49  and  _50
REMARK   24  A    between atoms: _50  and  _51
REMARK   25  A    between atoms: _51  and  _52
REMARK   26  A    between atoms: _61  and  _63
REMARK   27  A    between atoms: _63  and  _64
REMARK   28  A    between atoms: _66  and  _68
REMARK   29  A    between atoms: _68  and  _69
REMARK   30  A    between atoms: _68  and  _71
REMARK   31  A    between atoms: _71  and  _72
REMARK   32  A    between atoms: _78  and  _80
REMARK   33  A    between atoms: _80  and  _81
REMARK   34  A    between atoms: _80  and  _83
REMARK   35  A    between atoms: _84  and  _85
REMARK   36  A    between atoms: _85  and  _86
REMARK   37  A    between atoms: _95  and  _97
REMARK   38  A    between atoms: _97  and  _98
REMARK   39  A    between atoms: _97  and  _100
REMARK   40  A    between atoms: _100  and  _101
REMARK   41  A    between atoms: _104  and  _106
REMARK   42  A    between atoms: _106  and  _107
REMARK   43  A    between atoms: _106  and  _109
REMARK   44  A    between atoms: _109  and  _110
REMARK   45  A    between atoms: _112  and  _114
REMARK   46  A    between atoms: _114  and  _115
REMARK   47  A    between atoms: _114  and  _117
REMARK   48  A    between atoms: _117  and  _118
REMARK   49  A    between atoms: _118  and  _119
REMARK   50  A    between atoms: _124  and  _126
REMARK   51  A    between atoms: _126  and  _127
REMARK   52  A    between atoms: _126  and  _129
REMARK   53  A    between atoms: _129  and  _130
REMARK   54  A    between atoms: _135  and  _137
REMARK   55  A    between atoms: _137  and  _138
REMARK   56  A    between atoms: _137  and  _140
REMARK   57  A    between atoms: _140  and  _141
REMARK   58  A    between atoms: _144  and  _146
REMARK   59  A    between atoms: _146  and  _147
REMARK   60  A    between atoms: _146  and  _149
REMARK   61  A    between atoms: _149  and  _150
REMARK   62  A    between atoms: _156  and  _158
REMARK   63  A    between atoms: _158  and  _159
REMARK   64  A    between atoms: _158  and  _161
REMARK   65  A    between atoms: _161  and  _162
REMARK   66  A    between atoms: _165  and  _167
REMARK   67  A    between atoms: _167  and  _168
REMARK   68  A    between atoms: _167  and  _170
REMARK   69  A    between atoms: _170  and  _171
REMARK   70  A    between atoms: _174  and  _176
REMARK   71  A    between atoms: _176  and  _177
REMARK   72  A    between atoms: _176  and  _179
REMARK   73  A    between atoms: _179  and  _180
REMARK   74  A    between atoms: _190  and  _192
REMARK   75  A    between atoms: _192  and  _193
REMARK   76  A    between atoms: _196  and  _198
REMARK   77  A    between atoms: _198  and  _199
REMARK   78  A    between atoms: _198  and  _201
REMARK   79  A    between atoms: _201  and  _202
REMARK   80  A    between atoms: _205  and  _207
REMARK   81  A    between atoms: _207  and  _208
REMARK   82  A    between atoms: _207  and  _210
REMARK   83  A    between atoms: _210  and  _211
REMARK   84  A    between atoms: _221  and  _223
REMARK   85  A    between atoms: _223  and  _224
REMARK   86  A    between atoms: _223  and  _226
REMARK   87  A    between atoms: _226  and  _227
REMARK   88  A    between atoms: _232  and  _234
REMARK   89  A    between atoms: _234  and  _235
REMARK   90  A    between atoms: _234  and  _237
REMARK   91  A    between atoms: _237  and  _238
REMARK   92  A    between atoms: _241  and  _243
REMARK   93  A    between atoms: _243  and  _244
REMARK   94  A    between atoms: _243  and  _246
REMARK   95  A    between atoms: _248  and  _250
REMARK   96  A    between atoms: _250  and  _251
REMARK   97  A    between atoms: _250  and  _253
REMARK   98  A    between atoms: _253  and  _254
REMARK   99  A    between atoms: _257  and  _259
REMARK  100  A    between atoms: _259  and  _260
REMARK  101  A    between atoms: _259  and  _262
REMARK  102  A    between atoms: _262  and  _263
REMARK  103  A    between atoms: _268  and  _270
REMARK  104  A    between atoms: _270  and  _271
REMARK  105  A    between atoms: _270  and  _273
REMARK  106  A    between atoms: _273  and  _274
REMARK  107  A    between atoms: _274  and  _275
REMARK  108  A    between atoms: _280  and  _282
REMARK  109  A    between atoms: _282  and  _283
REMARK  110  A    between atoms: _282  and  _285
REMARK  111  A    between atoms: _285  and  _286
REMARK  112  A    between atoms: _286  and  _287
REMARK  113  A    between atoms: _287  and  _288
REMARK  114  A    between atoms: _297  and  _299
REMARK  115  A    between atoms: _299  and  _300
REMARK  116  A    between atoms: _299  and  _302
REMARK  117  A    between atoms: _302  and  _303
REMARK  118  A    between atoms: _303  and  _304
REMARK  119  A    between atoms: _307  and  _309
REMARK  120  A    between atoms: _309  and  _310
REMARK  121  A    between atoms: _309  and  _312
REMARK  122  A    between atoms: _312  and  _313
REMARK  123  A    between atoms: _316  and  _318
REMARK  124  A    between atoms: _318  and  _319
REMARK  125  A    between atoms: _318  and  _321
REMARK  126  A    between atoms: _321  and  _322
REMARK  127  A    between atoms: _327  and  _328
REMARK  128  A    between atoms: _330  and  _332
REMARK  129  A    between atoms: _332  and  _333
REMARK  130  A    between atoms: _332  and  _335
REMARK  131  A    between atoms: _335  and  _336
REMARK  132  A    between atoms: _336  and  _337
REMARK  133  A    between atoms: _337  and  _338
REMARK  134  A    between atoms: _338  and  _339
REMARK  135  A    between atoms: _343  and  _345
REMARK  136  A    between atoms: _345  and  _346
REMARK  137  A    between atoms: _345  and  _348
REMARK  138  A    between atoms: _348  and  _349
REMARK  139  A    between atoms: _349  and  _350
REMARK  140  A    between atoms: _353  and  _355
REMARK  141  A    between atoms: _355  and  _356
REMARK  142  A    between atoms: _355  and  _358
REMARK  143  A    between atoms: _358  and  _359
REMARK  144  A    between atoms: _365  and  _367
REMARK  145  A    between atoms: _367  and  _368
REMARK  146  A    between atoms: _367  and  _370
REMARK  147  A    between atoms: _370  and  _371
REMARK  148  A    between atoms: _376  and  _378
REMARK  149  A    between atoms: _378  and  _379
REMARK  150  A    between atoms: _378  and  _381
REMARK  151  A    between atoms: _381  and  _382
REMARK  152  A    between atoms: _387  and  _389
REMARK  153  A    between atoms: _389  and  _390
REMARK  154  A    between atoms: _389  and  _392
REMARK  155  A    between atoms: _392  and  _393
REMARK  156  A    between atoms: _403  and  _405
REMARK  157  A    between atoms: _405  and  _406
REMARK  158  A    between atoms: _405  and  _408
REMARK  159  A    between atoms: _408  and  _409
REMARK  160  A    between atoms: _409  and  _410
REMARK  161  A    between atoms: _415  and  _417
REMARK  162  A    between atoms: _417  and  _418
REMARK  163  A    between atoms: _417  and  _420
REMARK  164  A    between atoms: _420  and  _421
REMARK  165  A    between atoms: _426  and  _428
REMARK  166  A    between atoms: _428  and  _429
REMARK  167  A    between atoms: _428  and  _431
REMARK  168  A    between atoms: _431  and  _432
REMARK  169  A    between atoms: _435  and  _437
REMARK  170  A    between atoms: _437  and  _438
REMARK  171  A    between atoms: _437  and  _440
REMARK  172  A    between atoms: _440  and  _441
REMARK  173  A    between atoms: _444  and  _446
REMARK  174  A    between atoms: _446  and  _447
REMARK  175  A    between atoms: _449  and  _451
REMARK  176  A    between atoms: _451  and  _452
REMARK  177  A    between atoms: _451  and  _454
REMARK  178  A    between atoms: _454  and  _455
REMARK  179  A    between atoms: _455  and  _456
REMARK                            x       y       z     vdW  Elec       q    Type
REMARK                         _______ _______ _______ _____ _____    ______ ____
ROOT
ATOM      1  C   LYS A   1       6.611  36.362  79.826  0.00  0.00    +0.238 C 
ATOM      2  N   GLU A   2       6.096  36.719  80.982  0.00  0.00    -0.298 N 
ATOM      3  H   GLU A   2       5.424  37.512  81.027  0.00  0.00    +0.150 HD
ATOM      4  O   LYS A   1       7.244  35.313  79.685  0.00  0.00    -0.274 OA
ENDROOT
BRANCH   1   5
ATOM      5  CA  LYS A   1       6.386  37.293  78.643  0.00  0.00    +0.145 C 
BRANCH   5   6
ATOM      6  N   LYS A   1       5.968  36.539  77.484  0.00  0.00    -0.238 NA
ATOM      7  H   LYS A   1       6.446  36.709  76.576  0.00  0.00    +0.142 HD
ENDBRANCH   5   6
BRANCH   5   8
ATOM      8  CB  LYS A   1       5.392  38.431  78.949  0.00  0.00    +0.026 C 
BRANCH   8   9
ATOM      9  CG  LYS A   1       5.411  39.566  77.858  0.00  0.00    -0.000 C 
BRANCH   9  10
ATOM     10  CD  LYS A   1       6.578  40.564  78.081  0.00  0.00    -0.024 C 
BRANCH  10  11
ATOM     11  CE  LYS A   1       6.259  41.496  79.259  0.00  0.00    -0.086 C 
BRANCH  11  12
ATOM     12  NZ  LYS A   1       7.130  42.744  79.308  0.00  0.00    +0.380 N 
ATOM     13  HZ1 LYS A   1       6.858  43.323  80.128  0.00  0.00    -0.089 HD
ATOM     14  HZ2 LYS A   1       8.128  42.465  79.395  0.00  0.00    -0.089 HD
ATOM     15  HZ3 LYS A   1       6.997  43.293  78.435  0.00  0.00    -0.089 HD
ENDBRANCH  11  12
ENDBRANCH  10  11
ENDBRANCH   9  10
ENDBRANCH   8   9
ENDBRANCH   5   8
ENDBRANCH   1   5
BRANCH   2  16
ATOM     16  CA  GLU A   2       6.460  36.013  82.191  0.00  0.00    +0.137 C 
BRANCH  16  17
ATOM     17  C   GLU A   2       5.684  34.684  82.371  0.00  0.00    +0.227 C 
ATOM     18  O   GLU A   2       5.917  33.948  83.345  0.00  0.00    -0.286 OA
ENDBRANCH  16  17
BRANCH  16  19
ATOM     19  CB  GLU A   2       6.273  36.927  83.402  0.00  0.00    +0.039 C 
BRANCH  19  20
ATOM     20  CG  GLU A   2       7.389  37.922  83.654  0.00  0.00    +0.116 C 
BRANCH  20  21
ATOM     21  CD  GLU A   2       7.130  39.328  83.048  0.00  0.00    +0.365 C 
ATOM     22  OE2 GLU A   2       7.827  40.268  83.477  0.00  0.00    -0.246 OA
ATOM     23  OE1 GLU A   2       6.253  39.512  82.151  0.00  0.00    -0.246 OA
ENDBRANCH  20  21
ENDBRANCH  19  20
ENDBRANCH  16  19
ENDBRANCH   2  16
TORSDOF 12
REMARK  Name = ../refined-set-2016/3qfz/3qfz_pocket.pdb
REMARK  179 active torsions:
REMARK  status: ('A' for Active; 'I' for Inactive)
REMARK    1  A    between atoms: _1  and  _3
REMARK    2  A    between atoms: _3  and  _4
REMARK    3  A    between atoms: _3  and  _6
REMARK    4  A    between atoms: _6  and  _7
REMARK    5  A    between atoms: _9  and  _11
REMARK    6  A    between atoms: _11  and  _12
REMARK    7  A    between atoms: _11  and  _14
REMARK    8  A    between atoms: _14  and  _15
REMARK    9  A    between atoms: _15  and  _16
REMARK   10  A    between atoms: _16  and  _17
REMARK   11  A    between atoms: _26  and  _28
REMARK   12  A    between atoms: _28  and  _29
REMARK   13  A    between atoms: _28  and  _31
REMARK   14  A    between atoms: _31  and  _32
REMARK   15  A    between atoms: _34  and  _36
REMARK   16  A    between atoms: _36  and  _37
REMARK   17  A    between atoms: _36  and  _39
REMARK   18  A    between atoms: _39  and  _40
REMARK   19  A    between atoms: _40  and  _41
REMARK   20  A    between atoms: _44  and  _46
REMARK   21  A    between atoms: _46  and  _47
REMARK   22  A    between atoms: _46  and  _49
REMARK   23  A    between atoms: _49  and  _50
REMARK   24  A    between atoms: _50  and  _51
REMARK   25  A    between atoms: _51  and  _52
REMARK   26  A    between atoms: _61  and  _63
REMARK   27  A    between atoms: _63  and  _64
REMARK   28  A    between atoms: _66  and  _68
REMARK   29  A    between atoms: _68  and  _69
REMARK   30  A    between atoms: _68  and  _71
REMARK   31  A    between atoms: _71  and  _72
REMARK   32  A    between atoms: _78  and  _80
REMARK   33  A    between atoms: _80  and  _81
REMARK   34  A    between atoms: _80  and  _83
REMARK   35  A    between atoms: _84  and  _85
REMARK   36  A    between atoms: _85  and  _86
REMARK   37  A    between atoms: _95  and  _97
REMARK   38  A    between atoms: _97  and  _98
REMARK   39  A    between atoms: _97  and  _100
REMARK   40  A    between atoms: _100  and  _101
REMARK   41  A    between atoms: _104  and  _106
REMARK   42  A    between atoms: _106  and  _107
REMARK   43  A    between atoms: _106  and  _109
REMARK   44  A    between atoms: _109  and  _110
REMARK   45  A    between atoms: _112  and  _114
REMARK   46  A    between atoms: _114  and  _115
REMARK   47  A    between atoms: _114  and  _117
REMARK   48  A    between atoms: _117  and  _118
REMARK   49  A    between atoms: _118  and  _119
REMARK   50  A    between atoms: _124  and  _126
REMARK   51  A    between atoms: _126  and  _127
REMARK   52  A    between atoms: _126  and  _129
REMARK   53  A    between atoms: _129  and  _130
REMARK   54  A    between atoms: _135  and  _137
REMARK   55  A    between atoms: _137  and  _138
REMARK   56  A    between atoms: _137  and  _140
REMARK   57  A    between atoms: _140  and  _141
REMARK   58  A    between atoms: _144  and  _146
REMARK   59  A    between atoms: _146  and  _147
REMARK   60  A    between atoms: _146  and  _149
REMARK   61  A    between atoms: _149  and  _150
REMARK   62  A    between atoms: _156  and  _158
REMARK   63  A    between atoms: _158  and  _159
REMARK   64  A    between atoms: _158  and  _161
REMARK   65  A    between atoms: _161  and  _162
REMARK   66  A    between atoms: _165  and  _167
REMARK   67  A    between atoms: _167  and  _168
REMARK   68  A    between atoms: _167  and  _170
REMARK   69  A    between atoms: _170  and  _171
REMARK   70  A    between atoms: _174  and  _176
REMARK   71  A    between atoms: _176  and  _177
REMARK   72  A    between atoms: _176  and  _179
REMARK   73  A    between atoms: _179  and  _180
REMARK   74  A    between atoms: _190  and  _192
REMARK   75  A    between atoms: _192  and  _193
REMARK   76  A    between atoms: _196  and  _198
REMARK   77  A    between atoms: _198  and  _199
REMARK   78  A    between atoms: _198  and  _201
REMARK   79  A    between atoms: _201  and  _202
REMARK   80  A    between atoms: _205  and  _207
REMARK   81  A    between atoms: _207  and  _208
REMARK   82  A    between atoms: _207  and  _210
REMARK   83  A    between atoms: _210  and  _211
REMARK   84  A    between atoms: _221  and  _223
REMARK   85  A    between atoms: _223  and  _224
REMARK   86  A    between atoms: _223  and  _226
REMARK   87  A    between atoms: _226  and  _227
REMARK   88  A    between atoms: _232  and  _234
REMARK   89  A    between atoms: _234  and  _235
REMARK   90  A    between atoms: _234  and  _237
REMARK   91  A    between atoms: _237  and  _238
REMARK   92  A    between atoms: _241  and  _243
REMARK   93  A    between atoms: _243  and  _244
REMARK   94  A    between atoms: _243  and  _246
REMARK   95  A    between atoms: _248  and  _250
REMARK   96  A    between atoms: _250  and  _251
REMARK   97  A    between atoms: _250  and  _253
REMARK   98  A    between atoms: _253  and  _254
REMARK   99  A    between atoms: _257  and  _259
REMARK  100  A    between atoms: _259  and  _260
REMARK  101  A    between atoms: _259  and  _262
REMARK  102  A    between atoms: _262  and  _263
REMARK  103  A    between atoms: _268  and  _270
REMARK  104  A    between atoms: _270  and  _271
REMARK  105  A    between atoms: _270  and  _273
REMARK  106  A    between atoms: _273  and  _274
REMARK  107  A    between atoms: _274  and  _275
REMARK  108  A    between atoms: _280  and  _282
REMARK  109  A    between atoms: _282  and  _283
REMARK  110  A    between atoms: _282  and  _285
REMARK  111  A    between atoms: _285  and  _286
REMARK  112  A    between atoms: _286  and  _287
REMARK  113  A    between atoms: _287  and  _288
REMARK  114  A    between atoms: _297  and  _299
REMARK  115  A    between atoms: _299  and  _300
REMARK  116  A    between atoms: _299  and  _302
REMARK  117  A    between atoms: _302  and  _303
REMARK  118  A    between atoms: _303  and  _304
REMARK  119  A    between atoms: _307  and  _309
REMARK  120  A    between atoms: _309  and  _310
REMARK  121  A    between atoms: _309  and  _312
REMARK  122  A    between atoms: _312  and  _313
REMARK  123  A    between atoms: _316  and  _318
REMARK  124  A    between atoms: _318  and  _319
REMARK  125  A    between atoms: _318  and  _321
REMARK  126  A    between atoms: _321  and  _322
REMARK  127  A    between atoms: _327  and  _328
REMARK  128  A    between atoms: _330  and  _332
REMARK  129  A    between atoms: _332  and  _333
REMARK  130  A    between atoms: _332  and  _335
REMARK  131  A    between atoms: _335  and  _336
REMARK  132  A    between atoms: _336  and  _337
REMARK  133  A    between atoms: _337  and  _338
REMARK  134  A    between atoms: _338  and  _339
REMARK  135  A    between atoms: _343  and  _345
REMARK  136  A    between atoms: _345  and  _346
REMARK  137  A    between atoms: _345  and  _348
REMARK  138  A    between atoms: _348  and  _349
REMARK  139  A    between atoms: _349  and  _350
REMARK  140  A    between atoms: _353  and  _355
REMARK  141  A    between atoms: _355  and  _356
REMARK  142  A    between atoms: _355  and  _358
REMARK  143  A    between atoms: _358  and  _359
REMARK  144  A    between atoms: _365  and  _367
REMARK  145  A    between atoms: _367  and  _368
REMARK  146  A    between atoms: _367  and  _370
REMARK  147  A    between atoms: _370  and  _371
REMARK  148  A    between atoms: _376  and  _378
REMARK  149  A    between atoms: _378  and  _379
REMARK  150  A    between atoms: _378  and  _381
REMARK  151  A    between atoms: _381  and  _382
REMARK  152  A    between atoms: _387  and  _389
REMARK  153  A    between atoms: _389  and  _390
REMARK  154  A    between atoms: _389  and  _392
REMARK  155  A    between atoms: _392  and  _393
REMARK  156  A    between atoms: _403  and  _405
REMARK  157  A    between atoms: _405  and  _406
REMARK  158  A    between atoms: _405  and  _408
REMARK  159  A    between atoms: _408  and  _409
REMARK  160  A    between atoms: _409  and  _410
REMARK  161  A    between atoms: _415  and  _417
REMARK  162  A    between atoms: _417  and  _418
REMARK  163  A    between atoms: _417  and  _420
REMARK  164  A    between atoms: _420  and  _421
REMARK  165  A    between atoms: _426  and  _428
REMARK  166  A    between atoms: _428  and  _429
REMARK  167  A    between atoms: _428  and  _431
REMARK  168  A    between atoms: _431  and  _432
REMARK  169  A    between atoms: _435  and  _437
REMARK  170  A    between atoms: _437  and  _438
REMARK  171  A    between atoms: _437  and  _440
REMARK  172  A    between atoms: _440  and  _441
REMARK  173  A    between atoms: _444  and  _446
REMARK  174  A    between atoms: _446  and  _447
REMARK  175  A    between atoms: _449  and  _451
REMARK  176  A    between atoms: _451  and  _452
REMARK  177  A    between atoms: _451  and  _454
REMARK  178  A    between atoms: _454  and  _455
REMARK  179  A    between atoms: _455  and  _456
REMARK                            x       y       z     vdW  Elec       q    Type
REMARK                         _______ _______ _______ _____ _____    ______ ____
ROOT
ATOM      1  CB  PHE A   1      11.974  36.557  80.734  0.00  0.00    +0.051 C 
ENDROOT
BRANCH   1   2
ATOM      2  CG  PHE A   1      11.264  37.857  80.793  0.00  0.00    -0.020 A 
ATOM      3  CD2 PHE A   1      11.967  39.045  81.061  0.00  0.00    -0.004 A 
ATOM      4  CE2 PHE A   1      11.302  40.262  81.122  0.00  0.00    -0.000 A 
ATOM      5  CZ  PHE A   1       9.918  40.315  80.906  0.00  0.00    -0.000 A 
ATOM      6  CE1 PHE A   1       9.236  39.153  80.602  0.00  0.00    -0.000 A 
ATOM      7  CD1 PHE A   1       9.895  37.924  80.566  0.00  0.00    -0.004 A 
ENDBRANCH   1   2
BRANCH   1   8
ATOM      8  CA  PHE A   1      12.607  36.280  79.395  0.00  0.00    +0.137 C 
BRANCH   8   9
ATOM      9  N   PHE A   1      12.289  34.934  78.947  0.00  0.00    -0.239 NA
ATOM     10  H   PHE A   1      12.184  34.163  79.637  0.00  0.00    +0.142 HD
ENDBRANCH   8   9
BRANCH   8  11
ATOM     11  C   PHE A   1      14.121  36.357  79.454  0.00  0.00    +0.224 C 
ATOM     12  O   PHE A   1      14.704  35.980  80.442  0.00  0.00    -0.287 OA
ENDBRANCH   8  11
ENDBRANCH   1   8
TORSDOF 4
REMARK  Name = ../refined-set-2016/3qfz/3qfz_pocket.pdb
REMARK  179 active torsions:
REMARK  status: ('A' for Active; 'I' for Inactive)
REMARK    1  A    between atoms: _1  and  _3
REMARK    2  A    between atoms: _3  and  _4
REMARK    3  A    between atoms: _3  and  _6
REMARK    4  A    between atoms: _6  and  _7
REMARK    5  A    between atoms: _9  and  _11
REMARK    6  A    between atoms: _11  and  _12
REMARK    7  A    between atoms: _11  and  _14
REMARK    8  A    between atoms: _14  and  _15
REMARK    9  A    between atoms: _15  and  _16
REMARK   10  A    between atoms: _16  and  _17
REMARK   11  A    between atoms: _26  and  _28
REMARK   12  A    between atoms: _28  and  _29
REMARK   13  A    between atoms: _28  and  _31
REMARK   14  A    between atoms: _31  and  _32
REMARK   15  A    between atoms: _34  and  _36
REMARK   16  A    between atoms: _36  and  _37
REMARK   17  A    between atoms: _36  and  _39
REMARK   18  A    between atoms: _39  and  _40
REMARK   19  A    between atoms: _40  and  _41
REMARK   20  A    between atoms: _44  and  _46
REMARK   21  A    between atoms: _46  and  _47
REMARK   22  A    between atoms: _46  and  _49
REMARK   23  A    between atoms: _49  and  _50
REMARK   24  A    between atoms: _50  and  _51
REMARK   25  A    between atoms: _51  and  _52
REMARK   26  A    between atoms: _61  and  _63
REMARK   27  A    between atoms: _63  and  _64
REMARK   28  A    between atoms: _66  and  _68
REMARK   29  A    between atoms: _68  and  _69
REMARK   30  A    between atoms: _68  and  _71
REMARK   31  A    between atoms: _71  and  _72
REMARK   32  A    between atoms: _78  and  _80
REMARK   33  A    between atoms: _80  and  _81
REMARK   34  A    between atoms: _80  and  _83
REMARK   35  A    between atoms: _84  and  _85
REMARK   36  A    between atoms: _85  and  _86
REMARK   37  A    between atoms: _95  and  _97
REMARK   38  A    between atoms: _97  and  _98
REMARK   39  A    between atoms: _97  and  _100
REMARK   40  A    between atoms: _100  and  _101
REMARK   41  A    between atoms: _104  and  _106
REMARK   42  A    between atoms: _106  and  _107
REMARK   43  A    between atoms: _106  and  _109
REMARK   44  A    between atoms: _109  and  _110
REMARK   45  A    between atoms: _112  and  _114
REMARK   46  A    between atoms: _114  and  _115
REMARK   47  A    between atoms: _114  and  _117
REMARK   48  A    between atoms: _117  and  _118
REMARK   49  A    between atoms: _118  and  _119
REMARK   50  A    between atoms: _124  and  _126
REMARK   51  A    between atoms: _126  and  _127
REMARK   52  A    between atoms: _126  and  _129
REMARK   53  A    between atoms: _129  and  _130
REMARK   54  A    between atoms: _135  and  _137
REMARK   55  A    between atoms: _137  and  _138
REMARK   56  A    between atoms: _137  and  _140
REMARK   57  A    between atoms: _140  and  _141
REMARK   58  A    between atoms: _144  and  _146
REMARK   59  A    between atoms: _146  and  _147
REMARK   60  A    between atoms: _146  and  _149
REMARK   61  A    between atoms: _149  and  _150
REMARK   62  A    between atoms: _156  and  _158
REMARK   63  A    between atoms: _158  and  _159
REMARK   64  A    between atoms: _158  and  _161
REMARK   65  A    between atoms: _161  and  _162
REMARK   66  A    between atoms: _165  and  _167
REMARK   67  A    between atoms: _167  and  _168
REMARK   68  A    between atoms: _167  and  _170
REMARK   69  A    between atoms: _170  and  _171
REMARK   70  A    between atoms: _174  and  _176
REMARK   71  A    between atoms: _176  and  _177
REMARK   72  A    between atoms: _176  and  _179
REMARK   73  A    between atoms: _179  and  _180
REMARK   74  A    between atoms: _190  and  _192
REMARK   75  A    between atoms: _192  and  _193
REMARK   76  A    between atoms: _196  and  _198
REMARK   77  A    between atoms: _198  and  _199
REMARK   78  A    between atoms: _198  and  _201
REMARK   79  A    between atoms: _201  and  _202
REMARK   80  A    between atoms: _205  and  _207
REMARK   81  A    between atoms: _207  and  _208
REMARK   82  A    between atoms: _207  and  _210
REMARK   83  A    between atoms: _210  and  _211
REMARK   84  A    between atoms: _221  and  _223
REMARK   85  A    between atoms: _223  and  _224
REMARK   86  A    between atoms: _223  and  _226
REMARK   87  A    between atoms: _226  and  _227
REMARK   88  A    between atoms: _232  and  _234
REMARK   89  A    between atoms: _234  and  _235
REMARK   90  A    between atoms: _234  and  _237
REMARK   91  A    between atoms: _237  and  _238
REMARK   92  A    between atoms: _241  and  _243
REMARK   93  A    between atoms: _243  and  _244
REMARK   94  A    between atoms: _243  and  _246
REMARK   95  A    between atoms: _248  and  _250
REMARK   96  A    between atoms: _250  and  _251
REMARK   97  A    between atoms: _250  and  _253
REMARK   98  A    between atoms: _253  and  _254
REMARK   99  A    between atoms: _257  and  _259
REMARK  100  A    between atoms: _259  and  _260
REMARK  101  A    between atoms: _259  and  _262
REMARK  102  A    between atoms: _262  and  _263
REMARK  103  A    between atoms: _268  and  _270
REMARK  104  A    between atoms: _270  and  _271
REMARK  105  A    between atoms: _270  and  _273
REMARK  106  A    between atoms: _273  and  _274
REMARK  107  A    between atoms: _274  and  _275
REMARK  108  A    between atoms: _280  and  _282
REMARK  109  A    between atoms: _282  and  _283
REMARK  110  A    between atoms: _282  and  _285
REMARK  111  A    between atoms: _285  and  _286
REMARK  112  A    between atoms: _286  and  _287
REMARK  113  A    between atoms: _287  and  _288
REMARK  114  A    between atoms: _297  and  _299
REMARK  115  A    between atoms: _299  and  _300
REMARK  116  A    between atoms: _299  and  _302
REMARK  117  A    between atoms: _302  and  _303
REMARK  118  A    between atoms: _303  and  _304
REMARK  119  A    between atoms: _307  and  _309
REMARK  120  A    between atoms: _309  and  _310
REMARK  121  A    between atoms: _309  and  _312
REMARK  122  A    between atoms: _312  and  _313
REMARK  123  A    between atoms: _316  and  _318
REMARK  124  A    between atoms: _318  and  _319
REMARK  125  A    between atoms: _318  and  _321
REMARK  126  A    between atoms: _321  and  _322
REMARK  127  A    between atoms: _327  and  _328
REMARK  128  A    between atoms: _330  and  _332
REMARK  129  A    between atoms: _332  and  _333
REMARK  130  A    between atoms: _332  and  _335
REMARK  131  A    between atoms: _335  and  _336
REMARK  132  A    between atoms: _336  and  _337
REMARK  133  A    between atoms: _337  and  _338
REMARK  134  A    between atoms: _338  and  _339
REMARK  135  A    between atoms: _343  and  _345
REMARK  136  A    between atoms: _345  and  _346
REMARK  137  A    between atoms: _345  and  _348
REMARK  138  A    between atoms: _348  and  _349
REMARK  139  A    between atoms: _349  and  _350
REMARK  140  A    between atoms: _353  and  _355
REMARK  141  A    between atoms: _355  and  _356
REMARK  142  A    between atoms: _355  and  _358
REMARK  143  A    between atoms: _358  and  _359
REMARK  144  A    between atoms: _365  and  _367
REMARK  145  A    between atoms: _367  and  _368
REMARK  146  A    between atoms: _367  and  _370
REMARK  147  A    between atoms: _370  and  _371
REMARK  148  A    between atoms: _376  and  _378
REMARK  149  A    between atoms: _378  and  _379
REMARK  150  A    between atoms: _378  and  _381
REMARK  151  A    between atoms: _381  and  _382
REMARK  152  A    between atoms: _387  and  _389
REMARK  153  A    between atoms: _389  and  _390
REMARK  154  A    between atoms: _389  and  _392
REMARK  155  A    between atoms: _392  and  _393
REMARK  156  A    between atoms: _403  and  _405
REMARK  157  A    between atoms: _405  and  _406
REMARK  158  A    between atoms: _405  and  _408
REMARK  159  A    between atoms: _408  and  _409
REMARK  160  A    between atoms: _409  and  _410
REMARK  161  A    between atoms: _415  and  _417
REMARK  162  A    between atoms: _417  and  _418
REMARK  163  A    between atoms: _417  and  _420
REMARK  164  A    between atoms: _420  and  _421
REMARK  165  A    between atoms: _426  and  _428
REMARK  166  A    between atoms: _428  and  _429
REMARK  167  A    between atoms: _428  and  _431
REMARK  168  A    between atoms: _431  and  _432
REMARK  169  A    between atoms: _435  and  _437
REMARK  170  A    between atoms: _437  and  _438
REMARK  171  A    between atoms: _437  and  _440
REMARK  172  A    between atoms: _440  and  _441
REMARK  173  A    between atoms: _444  and  _446
REMARK  174  A    between atoms: _446  and  _447
REMARK  175  A    between atoms: _449  and  _451
REMARK  176  A    between atoms: _451  and  _452
REMARK  177  A    between atoms: _451  and  _454
REMARK  178  A    between atoms: _454  and  _455
REMARK  179  A    between atoms: _455  and  _456
REMARK                            x       y       z     vdW  Elec       q    Type
REMARK                         _______ _______ _______ _____ _____    ______ ____
ROOT
ATOM      1  C   HIS A   1      17.817  37.620  82.049  0.00  0.00    +0.239 C 
ATOM      2  O   HIS A   1      18.967  37.590  82.465  0.00  0.00    -0.274 OA
ATOM      3  N   ASN A   2      16.937  36.677  82.386  0.00  0.00    -0.298 N 
ATOM      4  H   ASN A   2      15.979  36.680  81.982  0.00  0.00    +0.150 HD
ENDROOT
BRANCH   1   5
ATOM      5  CA  HIS A   1      17.368  38.738  81.062  0.00  0.00    +0.151 C 
BRANCH   5   6
ATOM      6  N   HIS A   1      16.590  38.124  79.984  0.00  0.00    -0.238 NA
ATOM      7  H   HIS A   1      15.627  38.470  79.800  0.00  0.00    +0.142 HD
ENDBRANCH   5   6
BRANCH   5   8
ATOM      8  CB  HIS A   1      16.549  39.883  81.726  0.00  0.00    +0.074 C 
BRANCH   8   9
ATOM      9  CG  HIS A   1      17.194  40.493  82.934  0.00  0.00    +0.082 A 
ATOM     10  CD2 HIS A   1      17.510  39.967  84.147  0.00  0.00    +0.115 A 
ATOM     11  NE2 HIS A   1      18.069  40.976  84.898  0.00  0.00    -0.221 NA
ATOM     12  CE1 HIS A   1      18.079  42.089  84.181  0.00  0.00    +0.199 A 
ATOM     13  ND1 HIS A   1      17.551  41.824  82.998  0.00  0.00    -0.227 NA
ENDBRANCH   8   9
ENDBRANCH   5   8
ENDBRANCH   1   5
BRANCH   3  14
ATOM     14  CA  ASN A   2      17.344  35.630  83.341  0.00  0.00    +0.146 C 
BRANCH  14  15
ATOM     15  C   ASN A   2      18.160  34.455  82.716  0.00  0.00    +0.227 C 
ATOM     16  O   ASN A   2      18.655  33.552  83.444  0.00  0.00    -0.286 OA
ENDBRANCH  14  15
BRANCH  14  17
ATOM     17  CB  ASN A   2      16.125  35.118  84.128  0.00  0.00    +0.112 C 
BRANCH  17  18
ATOM     18  CG  ASN A   2      15.089  34.479  83.235  0.00  0.00    +0.222 C 
ATOM     19  ND2 ASN A   2      13.809  34.838  83.443  0.00  0.00    -0.329 N 
ATOM     20 HD21 ASN A   2      13.576  35.521  84.192  0.00  0.00    +0.145 HD
ATOM     21 HD22 ASN A   2      13.053  34.433  82.855  0.00  0.00    +0.145 HD
ATOM     22  OD1 ASN A   2      15.425  33.667  82.354  0.00  0.00    -0.275 OA
ENDBRANCH  17  18
ENDBRANCH  14  17
ENDBRANCH   3  14
TORSDOF 8
REMARK  Name = ../refined-set-2016/3qfz/3qfz_pocket.pdb
REMARK  179 active torsions:
REMARK  status: ('A' for Active; 'I' for Inactive)
REMARK    1  A    between atoms: _1  and  _3
REMARK    2  A    between atoms: _3  and  _4
REMARK    3  A    between atoms: _3  and  _6
REMARK    4  A    between atoms: _6  and  _7
REMARK    5  A    between atoms: _9  and  _11
REMARK    6  A    between atoms: _11  and  _12
REMARK    7  A    between atoms: _11  and  _14
REMARK    8  A    between atoms: _14  and  _15
REMARK    9  A    between atoms: _15  and  _16
REMARK   10  A    between atoms: _16  and  _17
REMARK   11  A    between atoms: _26  and  _28
REMARK   12  A    between atoms: _28  and  _29
REMARK   13  A    between atoms: _28  and  _31
REMARK   14  A    between atoms: _31  and  _32
REMARK   15  A    between atoms: _34  and  _36
REMARK   16  A    between atoms: _36  and  _37
REMARK   17  A    between atoms: _36  and  _39
REMARK   18  A    between atoms: _39  and  _40
REMARK   19  A    between atoms: _40  and  _41
REMARK   20  A    between atoms: _44  and  _46
REMARK   21  A    between atoms: _46  and  _47
REMARK   22  A    between atoms: _46  and  _49
REMARK   23  A    between atoms: _49  and  _50
REMARK   24  A    between atoms: _50  and  _51
REMARK   25  A    between atoms: _51  and  _52
REMARK   26  A    between atoms: _61  and  _63
REMARK   27  A    between atoms: _63  and  _64
REMARK   28  A    between atoms: _66  and  _68
REMARK   29  A    between atoms: _68  and  _69
REMARK   30  A    between atoms: _68  and  _71
REMARK   31  A    between atoms: _71  and  _72
REMARK   32  A    between atoms: _78  and  _80
REMARK   33  A    between atoms: _80  and  _81
REMARK   34  A    between atoms: _80  and  _83
REMARK   35  A    between atoms: _84  and  _85
REMARK   36  A    between atoms: _85  and  _86
REMARK   37  A    between atoms: _95  and  _97
REMARK   38  A    between atoms: _97  and  _98
REMARK   39  A    between atoms: _97  and  _100
REMARK   40  A    between atoms: _100  and  _101
REMARK   41  A    between atoms: _104  and  _106
REMARK   42  A    between atoms: _106  and  _107
REMARK   43  A    between atoms: _106  and  _109
REMARK   44  A    between atoms: _109  and  _110
REMARK   45  A    between atoms: _112  and  _114
REMARK   46  A    between atoms: _114  and  _115
REMARK   47  A    between atoms: _114  and  _117
REMARK   48  A    between atoms: _117  and  _118
REMARK   49  A    between atoms: _118  and  _119
REMARK   50  A    between atoms: _124  and  _126
REMARK   51  A    between atoms: _126  and  _127
REMARK   52  A    between atoms: _126  and  _129
REMARK   53  A    between atoms: _129  and  _130
REMARK   54  A    between atoms: _135  and  _137
REMARK   55  A    between atoms: _137  and  _138
REMARK   56  A    between atoms: _137  and  _140
REMARK   57  A    between atoms: _140  and  _141
REMARK   58  A    between atoms: _144  and  _146
REMARK   59  A    between atoms: _146  and  _147
REMARK   60  A    between atoms: _146  and  _149
REMARK   61  A    between atoms: _149  and  _150
REMARK   62  A    between atoms: _156  and  _158
REMARK   63  A    between atoms: _158  and  _159
REMARK   64  A    between atoms: _158  and  _161
REMARK   65  A    between atoms: _161  and  _162
REMARK   66  A    between atoms: _165  and  _167
REMARK   67  A    between atoms: _167  and  _168
REMARK   68  A    between atoms: _167  and  _170
REMARK   69  A    between atoms: _170  and  _171
REMARK   70  A    between atoms: _174  and  _176
REMARK   71  A    between atoms: _176  and  _177
REMARK   72  A    between atoms: _176  and  _179
REMARK   73  A    between atoms: _179  and  _180
REMARK   74  A    between atoms: _190  and  _192
REMARK   75  A    between atoms: _192  and  _193
REMARK   76  A    between atoms: _196  and  _198
REMARK   77  A    between atoms: _198  and  _199
REMARK   78  A    between atoms: _198  and  _201
REMARK   79  A    between atoms: _201  and  _202
REMARK   80  A    between atoms: _205  and  _207
REMARK   81  A    between atoms: _207  and  _208
REMARK   82  A    between atoms: _207  and  _210
REMARK   83  A    between atoms: _210  and  _211
REMARK   84  A    between atoms: _221  and  _223
REMARK   85  A    between atoms: _223  and  _224
REMARK   86  A    between atoms: _223  and  _226
REMARK   87  A    between atoms: _226  and  _227
REMARK   88  A    between atoms: _232  and  _234
REMARK   89  A    between atoms: _234  and  _235
REMARK   90  A    between atoms: _234  and  _237
REMARK   91  A    between atoms: _237  and  _238
REMARK   92  A    between atoms: _241  and  _243
REMARK   93  A    between atoms: _243  and  _244
REMARK   94  A    between atoms: _243  and  _246
REMARK   95  A    between atoms: _248  and  _250
REMARK   96  A    between atoms: _250  and  _251
REMARK   97  A    between atoms: _250  and  _253
REMARK   98  A    between atoms: _253  and  _254
REMARK   99  A    between atoms: _257  and  _259
REMARK  100  A    between atoms: _259  and  _260
REMARK  101  A    between atoms: _259  and  _262
REMARK  102  A    between atoms: _262  and  _263
REMARK  103  A    between atoms: _268  and  _270
REMARK  104  A    between atoms: _270  and  _271
REMARK  105  A    between atoms: _270  and  _273
REMARK  106  A    between atoms: _273  and  _274
REMARK  107  A    between atoms: _274  and  _275
REMARK  108  A    between atoms: _280  and  _282
REMARK  109  A    between atoms: _282  and  _283
REMARK  110  A    between atoms: _282  and  _285
REMARK  111  A    between atoms: _285  and  _286
REMARK  112  A    between atoms: _286  and  _287
REMARK  113  A    between atoms: _287  and  _288
REMARK  114  A    between atoms: _297  and  _299
REMARK  115  A    between atoms: _299  and  _300
REMARK  116  A    between atoms: _299  and  _302
REMARK  117  A    between atoms: _302  and  _303
REMARK  118  A    between atoms: _303  and  _304
REMARK  119  A    between atoms: _307  and  _309
REMARK  120  A    between atoms: _309  and  _310
REMARK  121  A    between atoms: _309  and  _312
REMARK  122  A    between atoms: _312  and  _313
REMARK  123  A    between atoms: _316  and  _318
REMARK  124  A    between atoms: _318  and  _319
REMARK  125  A    between atoms: _318  and  _321
REMARK  126  A    between atoms: _321  and  _322
REMARK  127  A    between atoms: _327  and  _328
REMARK  128  A    between atoms: _330  and  _332
REMARK  129  A    between atoms: _332  and  _333
REMARK  130  A    between atoms: _332  and  _335
REMARK  131  A    between atoms: _335  and  _336
REMARK  132  A    between atoms: _336  and  _337
REMARK  133  A    between atoms: _337  and  _338
REMARK  134  A    between atoms: _338  and  _339
REMARK  135  A    between atoms: _343  and  _345
REMARK  136  A    between atoms: _345  and  _346
REMARK  137  A    between atoms: _345  and  _348
REMARK  138  A    between atoms: _348  and  _349
REMARK  139  A    between atoms: _349  and  _350
REMARK  140  A    between atoms: _353  and  _355
REMARK  141  A    between atoms: _355  and  _356
REMARK  142  A    between atoms: _355  and  _358
REMARK  143  A    between atoms: _358  and  _359
REMARK  144  A    between atoms: _365  and  _367
REMARK  145  A    between atoms: _367  and  _368
REMARK  146  A    between atoms: _367  and  _370
REMARK  147  A    between atoms: _370  and  _371
REMARK  148  A    between atoms: _376  and  _378
REMARK  149  A    between atoms: _378  and  _379
REMARK  150  A    between atoms: _378  and  _381
REMARK  151  A    between atoms: _381  and  _382
REMARK  152  A    between atoms: _387  and  _389
REMARK  153  A    between atoms: _389  and  _390
REMARK  154  A    between atoms: _389  and  _392
REMARK  155  A    between atoms: _392  and  _393
REMARK  156  A    between atoms: _403  and  _405
REMARK  157  A    between atoms: _405  and  _406
REMARK  158  A    between atoms: _405  and  _408
REMARK  159  A    between atoms: _408  and  _409
REMARK  160  A    between atoms: _409  and  _410
REMARK  161  A    between atoms: _415  and  _417
REMARK  162  A    between atoms: _417  and  _418
REMARK  163  A    between atoms: _417  and  _420
REMARK  164  A    between atoms: _420  and  _421
REMARK  165  A    between atoms: _426  and  _428
REMARK  166  A    between atoms: _428  and  _429
REMARK  167  A    between atoms: _428  and  _431
REMARK  168  A    between atoms: _431  and  _432
REMARK  169  A    between atoms: _435  and  _437
REMARK  170  A    between atoms: _437  and  _438
REMARK  171  A    between atoms: _437  and  _440
REMARK  172  A    between atoms: _440  and  _441
REMARK  173  A    between atoms: _444  and  _446
REMARK  174  A    between atoms: _446  and  _447
REMARK  175  A    between atoms: _449  and  _451
REMARK  176  A    between atoms: _451  and  _452
REMARK  177  A    between atoms: _451  and  _454
REMARK  178  A    between atoms: _454  and  _455
REMARK  179  A    between atoms: _455  and  _456
REMARK                            x       y       z     vdW  Elec       q    Type
REMARK                         _______ _______ _______ _____ _____    ______ ____
ROOT
ATOM      1  CG  TRP A   1      20.483  35.449  86.280  0.00  0.00    -0.002 A 
ATOM      2  CD2 TRP A   1      19.200  35.923  86.709  0.00  0.00    +0.013 A 
ATOM      3  CE3 TRP A   1      18.002  35.281  87.083  0.00  0.00    +0.001 A 
ATOM      4  CZ3 TRP A   1      16.931  36.044  87.443  0.00  0.00    +0.000 A 
ATOM      5  CH2 TRP A   1      17.021  37.487  87.461  0.00  0.00    +0.001 A 
ATOM      6  CZ2 TRP A   1      18.179  38.138  87.113  0.00  0.00    +0.017 A 
ATOM      7  CE2 TRP A   1      19.266  37.346  86.732  0.00  0.00    +0.056 A 
ATOM      8  NE1 TRP A   1      20.541  37.712  86.363  0.00  0.00    -0.352 N 
ATOM      9  HE1 TRP A   1      20.896  38.687  86.300  0.00  0.00    +0.166 HD
ATOM     10  CD1 TRP A   1      21.272  36.570  86.089  0.00  0.00    +0.068 A 
ENDROOT
BRANCH   1  11
ATOM     11  CB  TRP A   1      20.877  34.030  86.131  0.00  0.00    +0.053 C 
BRANCH  11  12
ATOM     12  CA  TRP A   1      22.079  33.775  85.254  0.00  0.00    +0.137 C 
BRANCH  12  13
ATOM     13  N   TRP A   1      21.900  34.325  83.904  0.00  0.00    -0.239 NA
ATOM     14  H   TRP A   1      20.987  34.737  83.623  0.00  0.00    +0.142 HD
ENDBRANCH  12  13
BRANCH  12  15
ATOM     15  C   TRP A   1      22.348  32.272  85.232  0.00  0.00    +0.224 C 
ATOM     16  O   TRP A   1      23.181  31.776  86.000  0.00  0.00    -0.287 OA
ENDBRANCH  12  15
ENDBRANCH  11  12
ENDBRANCH   1  11
TORSDOF 4
REMARK  Name = ../refined-set-2016/3qfz/3qfz_pocket.pdb
REMARK  179 active torsions:
REMARK  status: ('A' for Active; 'I' for Inactive)
REMARK    1  A    between atoms: _1  and  _3
REMARK    2  A    between atoms: _3  and  _4
REMARK    3  A    between atoms: _3  and  _6
REMARK    4  A    between atoms: _6  and  _7
REMARK    5  A    between atoms: _9  and  _11
REMARK    6  A    between atoms: _11  and  _12
REMARK    7  A    between atoms: _11  and  _14
REMARK    8  A    between atoms: _14  and  _15
REMARK    9  A    between atoms: _15  and  _16
REMARK   10  A    between atoms: _16  and  _17
REMARK   11  A    between atoms: _26  and  _28
REMARK   12  A    between atoms: _28  and  _29
REMARK   13  A    between atoms: _28  and  _31
REMARK   14  A    between atoms: _31  and  _32
REMARK   15  A    between atoms: _34  and  _36
REMARK   16  A    between atoms: _36  and  _37
REMARK   17  A    between atoms: _36  and  _39
REMARK   18  A    between atoms: _39  and  _40
REMARK   19  A    between atoms: _40  and  _41
REMARK   20  A    between atoms: _44  and  _46
REMARK   21  A    between atoms: _46  and  _47
REMARK   22  A    between atoms: _46  and  _49
REMARK   23  A    between atoms: _49  and  _50
REMARK   24  A    between atoms: _50  and  _51
REMARK   25  A    between atoms: _51  and  _52
REMARK   26  A    between atoms: _61  and  _63
REMARK   27  A    between atoms: _63  and  _64
REMARK   28  A    between atoms: _66  and  _68
REMARK   29  A    between atoms: _68  and  _69
REMARK   30  A    between atoms: _68  and  _71
REMARK   31  A    between atoms: _71  and  _72
REMARK   32  A    between atoms: _78  and  _80
REMARK   33  A    between atoms: _80  and  _81
REMARK   34  A    between atoms: _80  and  _83
REMARK   35  A    between atoms: _84  and  _85
REMARK   36  A    between atoms: _85  and  _86
REMARK   37  A    between atoms: _95  and  _97
REMARK   38  A    between atoms: _97  and  _98
REMARK   39  A    between atoms: _97  and  _100
REMARK   40  A    between atoms: _100  and  _101
REMARK   41  A    between atoms: _104  and  _106
REMARK   42  A    between atoms: _106  and  _107
REMARK   43  A    between atoms: _106  and  _109
REMARK   44  A    between atoms: _109  and  _110
REMARK   45  A    between atoms: _112  and  _114
REMARK   46  A    between atoms: _114  and  _115
REMARK   47  A    between atoms: _114  and  _117
REMARK   48  A    between atoms: _117  and  _118
REMARK   49  A    between atoms: _118  and  _119
REMARK   50  A    between atoms: _124  and  _126
REMARK   51  A    between atoms: _126  and  _127
REMARK   52  A    between atoms: _126  and  _129
REMARK   53  A    between atoms: _129  and  _130
REMARK   54  A    between atoms: _135  and  _137
REMARK   55  A    between atoms: _137  and  _138
REMARK   56  A    between atoms: _137  and  _140
REMARK   57  A    between atoms: _140  and  _141
REMARK   58  A    between atoms: _144  and  _146
REMARK   59  A    between atoms: _146  and  _147
REMARK   60  A    between atoms: _146  and  _149
REMARK   61  A    between atoms: _149  and  _150
REMARK   62  A    between atoms: _156  and  _158
REMARK   63  A    between atoms: _158  and  _159
REMARK   64  A    between atoms: _158  and  _161
REMARK   65  A    between atoms: _161  and  _162
REMARK   66  A    between atoms: _165  and  _167
REMARK   67  A    between atoms: _167  and  _168
REMARK   68  A    between atoms: _167  and  _170
REMARK   69  A    between atoms: _170  and  _171
REMARK   70  A    between atoms: _174  and  _176
REMARK   71  A    between atoms: _176  and  _177
REMARK   72  A    between atoms: _176  and  _179
REMARK   73  A    between atoms: _179  and  _180
REMARK   74  A    between atoms: _190  and  _192
REMARK   75  A    between atoms: _192  and  _193
REMARK   76  A    between atoms: _196  and  _198
REMARK   77  A    between atoms: _198  and  _199
REMARK   78  A    between atoms: _198  and  _201
REMARK   79  A    between atoms: _201  and  _202
REMARK   80  A    between atoms: _205  and  _207
REMARK   81  A    between atoms: _207  and  _208
REMARK   82  A    between atoms: _207  and  _210
REMARK   83  A    between atoms: _210  and  _211
REMARK   84  A    between atoms: _221  and  _223
REMARK   85  A    between atoms: _223  and  _224
REMARK   86  A    between atoms: _223  and  _226
REMARK   87  A    between atoms: _226  and  _227
REMARK   88  A    between atoms: _232  and  _234
REMARK   89  A    between atoms: _234  and  _235
REMARK   90  A    between atoms: _234  and  _237
REMARK   91  A    between atoms: _237  and  _238
REMARK   92  A    between atoms: _241  and  _243
REMARK   93  A    between atoms: _243  and  _244
REMARK   94  A    between atoms: _243  and  _246
REMARK   95  A    between atoms: _248  and  _250
REMARK   96  A    between atoms: _250  and  _251
REMARK   97  A    between atoms: _250  and  _253
REMARK   98  A    between atoms: _253  and  _254
REMARK   99  A    between atoms: _257  and  _259
REMARK  100  A    between atoms: _259  and  _260
REMARK  101  A    between atoms: _259  and  _262
REMARK  102  A    between atoms: _262  and  _263
REMARK  103  A    between atoms: _268  and  _270
REMARK  104  A    between atoms: _270  and  _271
REMARK  105  A    between atoms: _270  and  _273
REMARK  106  A    between atoms: _273  and  _274
REMARK  107  A    between atoms: _274  and  _275
REMARK  108  A    between atoms: _280  and  _282
REMARK  109  A    between atoms: _282  and  _283
REMARK  110  A    between atoms: _282  and  _285
REMARK  111  A    between atoms: _285  and  _286
REMARK  112  A    between atoms: _286  and  _287
REMARK  113  A    between atoms: _287  and  _288
REMARK  114  A    between atoms: _297  and  _299
REMARK  115  A    between atoms: _299  and  _300
REMARK  116  A    between atoms: _299  and  _302
REMARK  117  A    between atoms: _302  and  _303
REMARK  118  A    between atoms: _303  and  _304
REMARK  119  A    between atoms: _307  and  _309
REMARK  120  A    between atoms: _309  and  _310
REMARK  121  A    between atoms: _309  and  _312
REMARK  122  A    between atoms: _312  and  _313
REMARK  123  A    between atoms: _316  and  _318
REMARK  124  A    between atoms: _318  and  _319
REMARK  125  A    between atoms: _318  and  _321
REMARK  126  A    between atoms: _321  and  _322
REMARK  127  A    between atoms: _327  and  _328
REMARK  128  A    between atoms: _330  and  _332
REMARK  129  A    between atoms: _332  and  _333
REMARK  130  A    between atoms: _332  and  _335
REMARK  131  A    between atoms: _335  and  _336
REMARK  132  A    between atoms: _336  and  _337
REMARK  133  A    between atoms: _337  and  _338
REMARK  134  A    between atoms: _338  and  _339
REMARK  135  A    between atoms: _343  and  _345
REMARK  136  A    between atoms: _345  and  _346
REMARK  137  A    between atoms: _345  and  _348
REMARK  138  A    between atoms: _348  and  _349
REMARK  139  A    between atoms: _349  and  _350
REMARK  140  A    between atoms: _353  and  _355
REMARK  141  A    between atoms: _355  and  _356
REMARK  142  A    between atoms: _355  and  _358
REMARK  143  A    between atoms: _358  and  _359
REMARK  144  A    between atoms: _365  and  _367
REMARK  145  A    between atoms: _367  and  _368
REMARK  146  A    between atoms: _367  and  _370
REMARK  147  A    between atoms: _370  and  _371
REMARK  148  A    between atoms: _376  and  _378
REMARK  149  A    between atoms: _378  and  _379
REMARK  150  A    between atoms: _378  and  _381
REMARK  151  A    between atoms: _381  and  _382
REMARK  152  A    between atoms: _387  and  _389
REMARK  153  A    between atoms: _389  and  _390
REMARK  154  A    between atoms: _389  and  _392
REMARK  155  A    between atoms: _392  and  _393
REMARK  156  A    between atoms: _403  and  _405
REMARK  157  A    between atoms: _405  and  _406
REMARK  158  A    between atoms: _405  and  _408
REMARK  159  A    between atoms: _408  and  _409
REMARK  160  A    between atoms: _409  and  _410
REMARK  161  A    between atoms: _415  and  _417
REMARK  162  A    between atoms: _417  and  _418
REMARK  163  A    between atoms: _417  and  _420
REMARK  164  A    between atoms: _420  and  _421
REMARK  165  A    between atoms: _426  and  _428
REMARK  166  A    between atoms: _428  and  _429
REMARK  167  A    between atoms: _428  and  _431
REMARK  168  A    between atoms: _431  and  _432
REMARK  169  A    between atoms: _435  and  _437
REMARK  170  A    between atoms: _437  and  _438
REMARK  171  A    between atoms: _437  and  _440
REMARK  172  A    between atoms: _440  and  _441
REMARK  173  A    between atoms: _444  and  _446
REMARK  174  A    between atoms: _446  and  _447
REMARK  175  A    between atoms: _449  and  _451
REMARK  176  A    between atoms: _451  and  _452
REMARK  177  A    between atoms: _451  and  _454
REMARK  178  A    between atoms: _454  and  _455
REMARK  179  A    between atoms: _455  and  _456
REMARK                            x       y       z     vdW  Elec       q    Type
REMARK                         _______ _______ _______ _____ _____    ______ ____
ROOT
ATOM      1  CB  GLN A   1      12.605  42.342  76.970  0.00  0.00    +0.035 C 
ENDROOT
BRANCH   1   2
ATOM      2  CA  GLN A   1      13.576  41.356  76.321  0.00  0.00    +0.134 C 
BRANCH   2   3
ATOM      3  N   GLN A   1      14.065  41.838  75.014  0.00  0.00    -0.239 NA
ATOM      4  H   GLN A   1      13.635  42.676  74.574  0.00  0.00    +0.142 HD
ENDBRANCH   2   3
BRANCH   2   5
ATOM      5  C   GLN A   1      12.964  39.938  76.240  0.00  0.00    +0.224 C 
ATOM      6  O   GLN A   1      13.218  39.070  77.111  0.00  0.00    -0.287 OA
ENDBRANCH   2   5
ENDBRANCH   1   2
BRANCH   1   7
ATOM      7  CG  GLN A   1      11.849  41.773  78.150  0.00  0.00    +0.087 C 
BRANCH   7   8
ATOM      8  CD  GLN A   1      10.649  42.641  78.527  0.00  0.00    +0.219 C 
ATOM      9  NE2 GLN A   1      10.923  43.698  79.262  0.00  0.00    -0.329 N 
ATOM     10 HE21 GLN A   1      11.896  43.868  79.586  0.00  0.00    +0.145 HD
ATOM     11 HE22 GLN A   1      10.166  44.363  79.519  0.00  0.00    +0.145 HD
ATOM     12  OE1 GLN A   1       9.495  42.390  78.111  0.00  0.00    -0.275 OA
ENDBRANCH   7   8
ENDBRANCH   1   7
TORSDOF 5
REMARK  Name = ../refined-set-2016/3qfz/3qfz_pocket.pdb
REMARK  179 active torsions:
REMARK  status: ('A' for Active; 'I' for Inactive)
REMARK    1  A    between atoms: _1  and  _3
REMARK    2  A    between atoms: _3  and  _4
REMARK    3  A    between atoms: _3  and  _6
REMARK    4  A    between atoms: _6  and  _7
REMARK    5  A    between atoms: _9  and  _11
REMARK    6  A    between atoms: _11  and  _12
REMARK    7  A    between atoms: _11  and  _14
REMARK    8  A    between atoms: _14  and  _15
REMARK    9  A    between atoms: _15  and  _16
REMARK   10  A    between atoms: _16  and  _17
REMARK   11  A    between atoms: _26  and  _28
REMARK   12  A    between atoms: _28  and  _29
REMARK   13  A    between atoms: _28  and  _31
REMARK   14  A    between atoms: _31  and  _32
REMARK   15  A    between atoms: _34  and  _36
REMARK   16  A    between atoms: _36  and  _37
REMARK   17  A    between atoms: _36  and  _39
REMARK   18  A    between atoms: _39  and  _40
REMARK   19  A    between atoms: _40  and  _41
REMARK   20  A    between atoms: _44  and  _46
REMARK   21  A    between atoms: _46  and  _47
REMARK   22  A    between atoms: _46  and  _49
REMARK   23  A    between atoms: _49  and  _50
REMARK   24  A    between atoms: _50  and  _51
REMARK   25  A    between atoms: _51  and  _52
REMARK   26  A    between atoms: _61  and  _63
REMARK   27  A    between atoms: _63  and  _64
REMARK   28  A    between atoms: _66  and  _68
REMARK   29  A    between atoms: _68  and  _69
REMARK   30  A    between atoms: _68  and  _71
REMARK   31  A    between atoms: _71  and  _72
REMARK   32  A    between atoms: _78  and  _80
REMARK   33  A    between atoms: _80  and  _81
REMARK   34  A    between atoms: _80  and  _83
REMARK   35  A    between atoms: _84  and  _85
REMARK   36  A    between atoms: _85  and  _86
REMARK   37  A    between atoms: _95  and  _97
REMARK   38  A    between atoms: _97  and  _98
REMARK   39  A    between atoms: _97  and  _100
REMARK   40  A    between atoms: _100  and  _101
REMARK   41  A    between atoms: _104  and  _106
REMARK   42  A    between atoms: _106  and  _107
REMARK   43  A    between atoms: _106  and  _109
REMARK   44  A    between atoms: _109  and  _110
REMARK   45  A    between atoms: _112  and  _114
REMARK   46  A    between atoms: _114  and  _115
REMARK   47  A    between atoms: _114  and  _117
REMARK   48  A    between atoms: _117  and  _118
REMARK   49  A    between atoms: _118  and  _119
REMARK   50  A    between atoms: _124  and  _126
REMARK   51  A    between atoms: _126  and  _127
REMARK   52  A    between atoms: _126  and  _129
REMARK   53  A    between atoms: _129  and  _130
REMARK   54  A    between atoms: _135  and  _137
REMARK   55  A    between atoms: _137  and  _138
REMARK   56  A    between atoms: _137  and  _140
REMARK   57  A    between atoms: _140  and  _141
REMARK   58  A    between atoms: _144  and  _146
REMARK   59  A    between atoms: _146  and  _147
REMARK   60  A    between atoms: _146  and  _149
REMARK   61  A    between atoms: _149  and  _150
REMARK   62  A    between atoms: _156  and  _158
REMARK   63  A    between atoms: _158  and  _159
REMARK   64  A    between atoms: _158  and  _161
REMARK   65  A    between atoms: _161  and  _162
REMARK   66  A    between atoms: _165  and  _167
REMARK   67  A    between atoms: _167  and  _168
REMARK   68  A    between atoms: _167  and  _170
REMARK   69  A    between atoms: _170  and  _171
REMARK   70  A    between atoms: _174  and  _176
REMARK   71  A    between atoms: _176  and  _177
REMARK   72  A    between atoms: _176  and  _179
REMARK   73  A    between atoms: _179  and  _180
REMARK   74  A    between atoms: _190  and  _192
REMARK   75  A    between atoms: _192  and  _193
REMARK   76  A    between atoms: _196  and  _198
REMARK   77  A    between atoms: _198  and  _199
REMARK   78  A    between atoms: _198  and  _201
REMARK   79  A    between atoms: _201  and  _202
REMARK   80  A    between atoms: _205  and  _207
REMARK   81  A    between atoms: _207  and  _208
REMARK   82  A    between atoms: _207  and  _210
REMARK   83  A    between atoms: _210  and  _211
REMARK   84  A    between atoms: _221  and  _223
REMARK   85  A    between atoms: _223  and  _224
REMARK   86  A    between atoms: _223  and  _226
REMARK   87  A    between atoms: _226  and  _227
REMARK   88  A    between atoms: _232  and  _234
REMARK   89  A    between atoms: _234  and  _235
REMARK   90  A    between atoms: _234  and  _237
REMARK   91  A    between atoms: _237  and  _238
REMARK   92  A    between atoms: _241  and  _243
REMARK   93  A    between atoms: _243  and  _244
REMARK   94  A    between atoms: _243  and  _246
REMARK   95  A    between atoms: _248  and  _250
REMARK   96  A    between atoms: _250  and  _251
REMARK   97  A    between atoms: _250  and  _253
REMARK   98  A    between atoms: _253  and  _254
REMARK   99  A    between atoms: _257  and  _259
REMARK  100  A    between atoms: _259  and  _260
REMARK  101  A    between atoms: _259  and  _262
REMARK  102  A    between atoms: _262  and  _263
REMARK  103  A    between atoms: _268  and  _270
REMARK  104  A    between atoms: _270  and  _271
REMARK  105  A    between atoms: _270  and  _273
REMARK  106  A    between atoms: _273  and  _274
REMARK  107  A    between atoms: _274  and  _275
REMARK  108  A    between atoms: _280  and  _282
REMARK  109  A    between atoms: _282  and  _283
REMARK  110  A    between atoms: _282  and  _285
REMARK  111  A    between atoms: _285  and  _286
REMARK  112  A    between atoms: _286  and  _287
REMARK  113  A    between atoms: _287  and  _288
REMARK  114  A    between atoms: _297  and  _299
REMARK  115  A    between atoms: _299  and  _300
REMARK  116  A    between atoms: _299  and  _302
REMARK  117  A    between atoms: _302  and  _303
REMARK  118  A    between atoms: _303  and  _304
REMARK  119  A    between atoms: _307  and  _309
REMARK  120  A    between atoms: _309  and  _310
REMARK  121  A    between atoms: _309  and  _312
REMARK  122  A    between atoms: _312  and  _313
REMARK  123  A    between atoms: _316  and  _318
REMARK  124  A    between atoms: _318  and  _319
REMARK  125  A    between atoms: _318  and  _321
REMARK  126  A    between atoms: _321  and  _322
REMARK  127  A    between atoms: _327  and  _328
REMARK  128  A    between atoms: _330  and  _332
REMARK  129  A    between atoms: _332  and  _333
REMARK  130  A    between atoms: _332  and  _335
REMARK  131  A    between atoms: _335  and  _336
REMARK  132  A    between atoms: _336  and  _337
REMARK  133  A    between atoms: _337  and  _338
REMARK  134  A    between atoms: _338  and  _339
REMARK  135  A    between atoms: _343  and  _345
REMARK  136  A    between atoms: _345  and  _346
REMARK  137  A    between atoms: _345  and  _348
REMARK  138  A    between atoms: _348  and  _349
REMARK  139  A    between atoms: _349  and  _350
REMARK  140  A    between atoms: _353  and  _355
REMARK  141  A    between atoms: _355  and  _356
REMARK  142  A    between atoms: _355  and  _358
REMARK  143  A    between atoms: _358  and  _359
REMARK  144  A    between atoms: _365  and  _367
REMARK  145  A    between atoms: _367  and  _368
REMARK  146  A    between atoms: _367  and  _370
REMARK  147  A    between atoms: _370  and  _371
REMARK  148  A    between atoms: _376  and  _378
REMARK  149  A    between atoms: _378  and  _379
REMARK  150  A    between atoms: _378  and  _381
REMARK  151  A    between atoms: _381  and  _382
REMARK  152  A    between atoms: _387  and  _389
REMARK  153  A    between atoms: _389  and  _390
REMARK  154  A    between atoms: _389  and  _392
REMARK  155  A    between atoms: _392  and  _393
REMARK  156  A    between atoms: _403  and  _405
REMARK  157  A    between atoms: _405  and  _406
REMARK  158  A    between atoms: _405  and  _408
REMARK  159  A    between atoms: _408  and  _409
REMARK  160  A    between atoms: _409  and  _410
REMARK  161  A    between atoms: _415  and  _417
REMARK  162  A    between atoms: _417  and  _418
REMARK  163  A    between atoms: _417  and  _420
REMARK  164  A    between atoms: _420  and  _421
REMARK  165  A    between atoms: _426  and  _428
REMARK  166  A    between atoms: _428  and  _429
REMARK  167  A    between atoms: _428  and  _431
REMARK  168  A    between atoms: _431  and  _432
REMARK  169  A    between atoms: _435  and  _437
REMARK  170  A    between atoms: _437  and  _438
REMARK  171  A    between atoms: _437  and  _440
REMARK  172  A    between atoms: _440  and  _441
REMARK  173  A    between atoms: _444  and  _446
REMARK  174  A    between atoms: _446  and  _447
REMARK  175  A    between atoms: _449  and  _451
REMARK  176  A    between atoms: _451  and  _452
REMARK  177  A    between atoms: _451  and  _454
REMARK  178  A    between atoms: _454  and  _455
REMARK  179  A    between atoms: _455  and  _456
REMARK                            x       y       z     vdW  Elec       q    Type
REMARK                         _______ _______ _______ _____ _____    ______ ____
ROOT
ATOM      1  CB  ASN A   1      10.270  44.133  74.573  0.00  0.00    +0.110 C 
ENDROOT
BRANCH   1   2
ATOM      2  CG  ASN A   1       8.763  44.214  74.817  0.00  0.00    +0.221 C 
ATOM      3  OD1 ASN A   1       8.236  43.614  75.757  0.00  0.00    -0.275 OA
ATOM      4  ND2 ASN A   1       8.071  44.944  73.990  0.00  0.00    -0.329 N 
ATOM      5 HD21 ASN A   1       7.042  45.034  74.112  0.00  0.00    +0.145 HD
ATOM      6 HD22 ASN A   1       8.547  45.437  73.208  0.00  0.00    +0.145 HD
ENDBRANCH   1   2
BRANCH   1   7
ATOM      7  CA  ASN A   1      10.666  44.515  73.136  0.00  0.00    +0.142 C 
BRANCH   7   8
ATOM      8  N   ASN A   1       9.969  43.654  72.171  0.00  0.00    -0.239 NA
ATOM      9  H   ASN A   1       9.324  44.078  71.474  0.00  0.00    +0.142 HD
ENDBRANCH   7   8
BRANCH   7  10
ATOM     10  C   ASN A   1      12.219  44.455  72.987  0.00  0.00    +0.225 C 
ATOM     11  O   ASN A   1      12.939  44.105  73.960  0.00  0.00    -0.287 OA
ENDBRANCH   7  10
ENDBRANCH   1   7
TORSDOF 4
REMARK  Name = ../refined-set-2016/3qfz/3qfz_pocket.pdb
REMARK  179 active torsions:
REMARK  status: ('A' for Active; 'I' for Inactive)
REMARK    1  A    between atoms: _1  and  _3
REMARK    2  A    between atoms: _3  and  _4
REMARK    3  A    between atoms: _3  and  _6
REMARK    4  A    between atoms: _6  and  _7
REMARK    5  A    between atoms: _9  and  _11
REMARK    6  A    between atoms: _11  and  _12
REMARK    7  A    between atoms: _11  and  _14
REMARK    8  A    between atoms: _14  and  _15
REMARK    9  A    between atoms: _15  and  _16
REMARK   10  A    between atoms: _16  and  _17
REMARK   11  A    between atoms: _26  and  _28
REMARK   12  A    between atoms: _28  and  _29
REMARK   13  A    between atoms: _28  and  _31
REMARK   14  A    between atoms: _31  and  _32
REMARK   15  A    between atoms: _34  and  _36
REMARK   16  A    between atoms: _36  and  _37
REMARK   17  A    between atoms: _36  and  _39
REMARK   18  A    between atoms: _39  and  _40
REMARK   19  A    between atoms: _40  and  _41
REMARK   20  A    between atoms: _44  and  _46
REMARK   21  A    between atoms: _46  and  _47
REMARK   22  A    between atoms: _46  and  _49
REMARK   23  A    between atoms: _49  and  _50
REMARK   24  A    between atoms: _50  and  _51
REMARK   25  A    between atoms: _51  and  _52
REMARK   26  A    between atoms: _61  and  _63
REMARK   27  A    between atoms: _63  and  _64
REMARK   28  A    between atoms: _66  and  _68
REMARK   29  A    between atoms: _68  and  _69
REMARK   30  A    between atoms: _68  and  _71
REMARK   31  A    between atoms: _71  and  _72
REMARK   32  A    between atoms: _78  and  _80
REMARK   33  A    between atoms: _80  and  _81
REMARK   34  A    between atoms: _80  and  _83
REMARK   35  A    between atoms: _84  and  _85
REMARK   36  A    between atoms: _85  and  _86
REMARK   37  A    between atoms: _95  and  _97
REMARK   38  A    between atoms: _97  and  _98
REMARK   39  A    between atoms: _97  and  _100
REMARK   40  A    between atoms: _100  and  _101
REMARK   41  A    between atoms: _104  and  _106
REMARK   42  A    between atoms: _106  and  _107
REMARK   43  A    between atoms: _106  and  _109
REMARK   44  A    between atoms: _109  and  _110
REMARK   45  A    between atoms: _112  and  _114
REMARK   46  A    between atoms: _114  and  _115
REMARK   47  A    between atoms: _114  and  _117
REMARK   48  A    between atoms: _117  and  _118
REMARK   49  A    between atoms: _118  and  _119
REMARK   50  A    between atoms: _124  and  _126
REMARK   51  A    between atoms: _126  and  _127
REMARK   52  A    between atoms: _126  and  _129
REMARK   53  A    between atoms: _129  and  _130
REMARK   54  A    between atoms: _135  and  _137
REMARK   55  A    between atoms: _137  and  _138
REMARK   56  A    between atoms: _137  and  _140
REMARK   57  A    between atoms: _140  and  _141
REMARK   58  A    between atoms: _144  and  _146
REMARK   59  A    between atoms: _146  and  _147
REMARK   60  A    between atoms: _146  and  _149
REMARK   61  A    between atoms: _149  and  _150
REMARK   62  A    between atoms: _156  and  _158
REMARK   63  A    between atoms: _158  and  _159
REMARK   64  A    between atoms: _158  and  _161
REMARK   65  A    between atoms: _161  and  _162
REMARK   66  A    between atoms: _165  and  _167
REMARK   67  A    between atoms: _167  and  _168
REMARK   68  A    between atoms: _167  and  _170
REMARK   69  A    between atoms: _170  and  _171
REMARK   70  A    between atoms: _174  and  _176
REMARK   71  A    between atoms: _176  and  _177
REMARK   72  A    between atoms: _176  and  _179
REMARK   73  A    between atoms: _179  and  _180
REMARK   74  A    between atoms: _190  and  _192
REMARK   75  A    between atoms: _192  and  _193
REMARK   76  A    between atoms: _196  and  _198
REMARK   77  A    between atoms: _198  and  _199
REMARK   78  A    between atoms: _198  and  _201
REMARK   79  A    between atoms: _201  and  _202
REMARK   80  A    between atoms: _205  and  _207
REMARK   81  A    between atoms: _207  and  _208
REMARK   82  A    between atoms: _207  and  _210
REMARK   83  A    between atoms: _210  and  _211
REMARK   84  A    between atoms: _221  and  _223
REMARK   85  A    between atoms: _223  and  _224
REMARK   86  A    between atoms: _223  and  _226
REMARK   87  A    between atoms: _226  and  _227
REMARK   88  A    between atoms: _232  and  _234
REMARK   89  A    between atoms: _234  and  _235
REMARK   90  A    between atoms: _234  and  _237
REMARK   91  A    between atoms: _237  and  _238
REMARK   92  A    between atoms: _241  and  _243
REMARK   93  A    between atoms: _243  and  _244
REMARK   94  A    between atoms: _243  and  _246
REMARK   95  A    between atoms: _248  and  _250
REMARK   96  A    between atoms: _250  and  _251
REMARK   97  A    between atoms: _250  and  _253
REMARK   98  A    between atoms: _253  and  _254
REMARK   99  A    between atoms: _257  and  _259
REMARK  100  A    between atoms: _259  and  _260
REMARK  101  A    between atoms: _259  and  _262
REMARK  102  A    between atoms: _262  and  _263
REMARK  103  A    between atoms: _268  and  _270
REMARK  104  A    between atoms: _270  and  _271
REMARK  105  A    between atoms: _270  and  _273
REMARK  106  A    between atoms: _273  and  _274
REMARK  107  A    between atoms: _274  and  _275
REMARK  108  A    between atoms: _280  and  _282
REMARK  109  A    between atoms: _282  and  _283
REMARK  110  A    between atoms: _282  and  _285
REMARK  111  A    between atoms: _285  and  _286
REMARK  112  A    between atoms: _286  and  _287
REMARK  113  A    between atoms: _287  and  _288
REMARK  114  A    between atoms: _297  and  _299
REMARK  115  A    between atoms: _299  and  _300
REMARK  116  A    between atoms: _299  and  _302
REMARK  117  A    between atoms: _302  and  _303
REMARK  118  A    between atoms: _303  and  _304
REMARK  119  A    between atoms: _307  and  _309
REMARK  120  A    between atoms: _309  and  _310
REMARK  121  A    between atoms: _309  and  _312
REMARK  122  A    between atoms: _312  and  _313
REMARK  123  A    between atoms: _316  and  _318
REMARK  124  A    between atoms: _318  and  _319
REMARK  125  A    between atoms: _318  and  _321
REMARK  126  A    between atoms: _321  and  _322
REMARK  127  A    between atoms: _327  and  _328
REMARK  128  A    between atoms: _330  and  _332
REMARK  129  A    between atoms: _332  and  _333
REMARK  130  A    between atoms: _332  and  _335
REMARK  131  A    between atoms: _335  and  _336
REMARK  132  A    between atoms: _336  and  _337
REMARK  133  A    between atoms: _337  and  _338
REMARK  134  A    between atoms: _338  and  _339
REMARK  135  A    between atoms: _343  and  _345
REMARK  136  A    between atoms: _345  and  _346
REMARK  137  A    between atoms: _345  and  _348
REMARK  138  A    between atoms: _348  and  _349
REMARK  139  A    between atoms: _349  and  _350
REMARK  140  A    between atoms: _353  and  _355
REMARK  141  A    between atoms: _355  and  _356
REMARK  142  A    between atoms: _355  and  _358
REMARK  143  A    between atoms: _358  and  _359
REMARK  144  A    between atoms: _365  and  _367
REMARK  145  A    between atoms: _367  and  _368
REMARK  146  A    between atoms: _367  and  _370
REMARK  147  A    between atoms: _370  and  _371
REMARK  148  A    between atoms: _376  and  _378
REMARK  149  A    between atoms: _378  and  _379
REMARK  150  A    between atoms: _378  and  _381
REMARK  151  A    between atoms: _381  and  _382
REMARK  152  A    between atoms: _387  and  _389
REMARK  153  A    between atoms: _389  and  _390
REMARK  154  A    between atoms: _389  and  _392
REMARK  155  A    between atoms: _392  and  _393
REMARK  156  A    between atoms: _403  and  _405
REMARK  157  A    between atoms: _405  and  _406
REMARK  158  A    between atoms: _405  and  _408
REMARK  159  A    between atoms: _408  and  _409
REMARK  160  A    between atoms: _409  and  _410
REMARK  161  A    between atoms: _415  and  _417
REMARK  162  A    between atoms: _417  and  _418
REMARK  163  A    between atoms: _417  and  _420
REMARK  164  A    between atoms: _420  and  _421
REMARK  165  A    between atoms: _426  and  _428
REMARK  166  A    between atoms: _428  and  _429
REMARK  167  A    between atoms: _428  and  _431
REMARK  168  A    between atoms: _431  and  _432
REMARK  169  A    between atoms: _435  and  _437
REMARK  170  A    between atoms: _437  and  _438
REMARK  171  A    between atoms: _437  and  _440
REMARK  172  A    between atoms: _440  and  _441
REMARK  173  A    between atoms: _444  and  _446
REMARK  174  A    between atoms: _446  and  _447
REMARK  175  A    between atoms: _449  and  _451
REMARK  176  A    between atoms: _451  and  _452
REMARK  177  A    between atoms: _451  and  _454
REMARK  178  A    between atoms: _454  and  _455
REMARK  179  A    between atoms: _455  and  _456
REMARK                            x       y       z     vdW  Elec       q    Type
REMARK                         _______ _______ _______ _____ _____    ______ ____
ROOT
ATOM      1  CA  THR A   2      16.670  44.923  78.254  0.00  0.00    +0.176 C 
ENDROOT
BRANCH   1   3
ATOM      2  C   LEU A   1      15.671  46.770  77.029  0.00  0.00    +0.238 C 
ATOM      3  N   THR A   2      16.740  46.119  77.454  0.00  0.00    -0.295 N 
ATOM      4  H   THR A   2      17.678  46.488  77.198  0.00  0.00    +0.150 HD
ATOM      5  O   LEU A   1      14.513  46.421  77.275  0.00  0.00    -0.274 OA
BRANCH   2   6
ATOM      6  CA  LEU A   1      15.973  48.000  76.170  0.00  0.00    +0.145 C 
BRANCH   6   7
ATOM      7  N   LEU A   1      15.928  47.640  74.766  0.00  0.00    -0.238 NA
ATOM      8  H   LEU A   1      15.030  47.664  74.243  0.00  0.00    +0.142 HD
ENDBRANCH   6   7
BRANCH   6   9
ATOM      9  CB  LEU A   1      14.982  49.129  76.469  0.00  0.00    +0.026 C 
BRANCH   9  10
ATOM     10  CG  LEU A   1      15.221  50.383  75.614  0.00  0.00    +0.002 C 
ATOM     11  CD2 LEU A   1      14.328  51.482  76.150  0.00  0.00    +0.000 C 
ATOM     12  CD1 LEU A   1      16.720  50.772  75.609  0.00  0.00    +0.000 C 
ENDBRANCH   9  10
ENDBRANCH   6   9
ENDBRANCH   2   6
ENDBRANCH   1   3
BRANCH   1  13
ATOM     13  C   THR A   2      17.925  44.763  79.081  0.00  0.00    +0.243 C 
ATOM     14  N   GLY A   3      17.770  44.238  80.300  0.00  0.00    -0.296 N 
ATOM     15  H   GLY A   3      16.811  44.065  80.664  0.00  0.00    +0.150 HD
ATOM     16  O   THR A   2      19.019  45.109  78.635  0.00  0.00    -0.273 OA
BRANCH  14  17
ATOM     17  CA  GLY A   3      18.936  43.900  81.137  0.00  0.00    +0.163 C 
BRANCH  17  18
ATOM     18  C   GLY A   3      19.759  42.760  80.574  0.00  0.00    +0.229 C 
ATOM     19  O   GLY A   3      20.877  42.509  81.010  0.00  0.00    -0.286 OA
ENDBRANCH  17  18
ENDBRANCH  14  17
ENDBRANCH   1  13
BRANCH   1  20
ATOM     20  CB  THR A   2      16.377  43.640  77.405  0.00  0.00    +0.137 C 
ATOM     21  CG2 THR A   2      17.286  43.508  76.184  0.00  0.00    +0.034 C 
BRANCH  20  22
ATOM     22  OG1 THR A   2      16.490  42.482  78.246  0.00  0.00    -0.382 OA
ATOM     23  HG1 THR A   2      16.305  41.669  77.712  0.00  0.00    +0.210 HD
ENDBRANCH  20  22
ENDBRANCH   1  20
TORSDOF 10
REMARK  Name = ../refined-set-2016/3qfz/3qfz_pocket.pdb
REMARK  179 active torsions:
REMARK  status: ('A' for Active; 'I' for Inactive)
REMARK    1  A    between atoms: _1  and  _3
REMARK    2  A    between atoms: _3  and  _4
REMARK    3  A    between atoms: _3  and  _6
REMARK    4  A    between atoms: _6  and  _7
REMARK    5  A    between atoms: _9  and  _11
REMARK    6  A    between atoms: _11  and  _12
REMARK    7  A    between atoms: _11  and  _14
REMARK    8  A    between atoms: _14  and  _15
REMARK    9  A    between atoms: _15  and  _16
REMARK   10  A    between atoms: _16  and  _17
REMARK   11  A    between atoms: _26  and  _28
REMARK   12  A    between atoms: _28  and  _29
REMARK   13  A    between atoms: _28  and  _31
REMARK   14  A    between atoms: _31  and  _32
REMARK   15  A    between atoms: _34  and  _36
REMARK   16  A    between atoms: _36  and  _37
REMARK   17  A    between atoms: _36  and  _39
REMARK   18  A    between atoms: _39  and  _40
REMARK   19  A    between atoms: _40  and  _41
REMARK   20  A    between atoms: _44  and  _46
REMARK   21  A    between atoms: _46  and  _47
REMARK   22  A    between atoms: _46  and  _49
REMARK   23  A    between atoms: _49  and  _50
REMARK   24  A    between atoms: _50  and  _51
REMARK   25  A    between atoms: _51  and  _52
REMARK   26  A    between atoms: _61  and  _63
REMARK   27  A    between atoms: _63  and  _64
REMARK   28  A    between atoms: _66  and  _68
REMARK   29  A    between atoms: _68  and  _69
REMARK   30  A    between atoms: _68  and  _71
REMARK   31  A    between atoms: _71  and  _72
REMARK   32  A    between atoms: _78  and  _80
REMARK   33  A    between atoms: _80  and  _81
REMARK   34  A    between atoms: _80  and  _83
REMARK   35  A    between atoms: _84  and  _85
REMARK   36  A    between atoms: _85  and  _86
REMARK   37  A    between atoms: _95  and  _97
REMARK   38  A    between atoms: _97  and  _98
REMARK   39  A    between atoms: _97  and  _100
REMARK   40  A    between atoms: _100  and  _101
REMARK   41  A    between atoms: _104  and  _106
REMARK   42  A    between atoms: _106  and  _107
REMARK   43  A    between atoms: _106  and  _109
REMARK   44  A    between atoms: _109  and  _110
REMARK   45  A    between atoms: _112  and  _114
REMARK   46  A    between atoms: _114  and  _115
REMARK   47  A    between atoms: _114  and  _117
REMARK   48  A    between atoms: _117  and  _118
REMARK   49  A    between atoms: _118  and  _119
REMARK   50  A    between atoms: _124  and  _126
REMARK   51  A    between atoms: _126  and  _127
REMARK   52  A    between atoms: _126  and  _129
REMARK   53  A    between atoms: _129  and  _130
REMARK   54  A    between atoms: _135  and  _137
REMARK   55  A    between atoms: _137  and  _138
REMARK   56  A    between atoms: _137  and  _140
REMARK   57  A    between atoms: _140  and  _141
REMARK   58  A    between atoms: _144  and  _146
REMARK   59  A    between atoms: _146  and  _147
REMARK   60  A    between atoms: _146  and  _149
REMARK   61  A    between atoms: _149  and  _150
REMARK   62  A    between atoms: _156  and  _158
REMARK   63  A    between atoms: _158  and  _159
REMARK   64  A    between atoms: _158  and  _161
REMARK   65  A    between atoms: _161  and  _162
REMARK   66  A    between atoms: _165  and  _167
REMARK   67  A    between atoms: _167  and  _168
REMARK   68  A    between atoms: _167  and  _170
REMARK   69  A    between atoms: _170  and  _171
REMARK   70  A    between atoms: _174  and  _176
REMARK   71  A    between atoms: _176  and  _177
REMARK   72  A    between atoms: _176  and  _179
REMARK   73  A    between atoms: _179  and  _180
REMARK   74  A    between atoms: _190  and  _192
REMARK   75  A    between atoms: _192  and  _193
REMARK   76  A    between atoms: _196  and  _198
REMARK   77  A    between atoms: _198  and  _199
REMARK   78  A    between atoms: _198  and  _201
REMARK   79  A    between atoms: _201  and  _202
REMARK   80  A    between atoms: _205  and  _207
REMARK   81  A    between atoms: _207  and  _208
REMARK   82  A    between atoms: _207  and  _210
REMARK   83  A    between atoms: _210  and  _211
REMARK   84  A    between atoms: _221  and  _223
REMARK   85  A    between atoms: _223  and  _224
REMARK   86  A    between atoms: _223  and  _226
REMARK   87  A    between atoms: _226  and  _227
REMARK   88  A    between atoms: _232  and  _234
REMARK   89  A    between atoms: _234  and  _235
REMARK   90  A    between atoms: _234  and  _237
REMARK   91  A    between atoms: _237  and  _238
REMARK   92  A    between atoms: _241  and  _243
REMARK   93  A    between atoms: _243  and  _244
REMARK   94  A    between atoms: _243  and  _246
REMARK   95  A    between atoms: _248  and  _250
REMARK   96  A    between atoms: _250  and  _251
REMARK   97  A    between atoms: _250  and  _253
REMARK   98  A    between atoms: _253  and  _254
REMARK   99  A    between atoms: _257  and  _259
REMARK  100  A    between atoms: _259  and  _260
REMARK  101  A    between atoms: _259  and  _262
REMARK  102  A    between atoms: _262  and  _263
REMARK  103  A    between atoms: _268  and  _270
REMARK  104  A    between atoms: _270  and  _271
REMARK  105  A    between atoms: _270  and  _273
REMARK  106  A    between atoms: _273  and  _274
REMARK  107  A    between atoms: _274  and  _275
REMARK  108  A    between atoms: _280  and  _282
REMARK  109  A    between atoms: _282  and  _283
REMARK  110  A    between atoms: _282  and  _285
REMARK  111  A    between atoms: _285  and  _286
REMARK  112  A    between atoms: _286  and  _287
REMARK  113  A    between atoms: _287  and  _288
REMARK  114  A    between atoms: _297  and  _299
REMARK  115  A    between atoms: _299  and  _300
REMARK  116  A    between atoms: _299  and  _302
REMARK  117  A    between atoms: _302  and  _303
REMARK  118  A    between atoms: _303  and  _304
REMARK  119  A    between atoms: _307  and  _309
REMARK  120  A    between atoms: _309  and  _310
REMARK  121  A    between atoms: _309  and  _312
REMARK  122  A    between atoms: _312  and  _313
REMARK  123  A    between atoms: _316  and  _318
REMARK  124  A    between atoms: _318  and  _319
REMARK  125  A    between atoms: _318  and  _321
REMARK  126  A    between atoms: _321  and  _322
REMARK  127  A    between atoms: _327  and  _328
REMARK  128  A    between atoms: _330  and  _332
REMARK  129  A    between atoms: _332  and  _333
REMARK  130  A    between atoms: _332  and  _335
REMARK  131  A    between atoms: _335  and  _336
REMARK  132  A    between atoms: _336  and  _337
REMARK  133  A    between atoms: _337  and  _338
REMARK  134  A    between atoms: _338  and  _339
REMARK  135  A    between atoms: _343  and  _345
REMARK  136  A    between atoms: _345  and  _346
REMARK  137  A    between atoms: _345  and  _348
REMARK  138  A    between atoms: _348  and  _349
REMARK  139  A    between atoms: _349  and  _350
REMARK  140  A    between atoms: _353  and  _355
REMARK  141  A    between atoms: _355  and  _356
REMARK  142  A    between atoms: _355  and  _358
REMARK  143  A    between atoms: _358  and  _359
REMARK  144  A    between atoms: _365  and  _367
REMARK  145  A    between atoms: _367  and  _368
REMARK  146  A    between atoms: _367  and  _370
REMARK  147  A    between atoms: _370  and  _371
REMARK  148  A    between atoms: _376  and  _378
REMARK  149  A    between atoms: _378  and  _379
REMARK  150  A    between atoms: _378  and  _381
REMARK  151  A    between atoms: _381  and  _382
REMARK  152  A    between atoms: _387  and  _389
REMARK  153  A    between atoms: _389  and  _390
REMARK  154  A    between atoms: _389  and  _392
REMARK  155  A    between atoms: _392  and  _393
REMARK  156  A    between atoms: _403  and  _405
REMARK  157  A    between atoms: _405  and  _406
REMARK  158  A    between atoms: _405  and  _408
REMARK  159  A    between atoms: _408  and  _409
REMARK  160  A    between atoms: _409  and  _410
REMARK  161  A    between atoms: _415  and  _417
REMARK  162  A    between atoms: _417  and  _418
REMARK  163  A    between atoms: _417  and  _420
REMARK  164  A    between atoms: _420  and  _421
REMARK  165  A    between atoms: _426  and  _428
REMARK  166  A    between atoms: _428  and  _429
REMARK  167  A    between atoms: _428  and  _431
REMARK  168  A    between atoms: _431  and  _432
REMARK  169  A    between atoms: _435  and  _437
REMARK  170  A    between atoms: _437  and  _438
REMARK  171  A    between atoms: _437  and  _440
REMARK  172  A    between atoms: _440  and  _441
REMARK  173  A    between atoms: _444  and  _446
REMARK  174  A    between atoms: _446  and  _447
REMARK  175  A    between atoms: _449  and  _451
REMARK  176  A    between atoms: _451  and  _452
REMARK  177  A    between atoms: _451  and  _454
REMARK  178  A    between atoms: _454  and  _455
REMARK  179  A    between atoms: _455  and  _456
REMARK                            x       y       z     vdW  Elec       q    Type
REMARK                         _______ _______ _______ _____ _____    ______ ____
ROOT
ATOM      1  CB  GLN A   1       6.505  46.638  77.308  0.00  0.00    +0.035 C 
ENDROOT
BRANCH   1   2
ATOM      2  CA  GLN A   1       5.551  45.955  76.313  0.00  0.00    +0.134 C 
BRANCH   2   3
ATOM      3  N   GLN A   1       4.587  46.906  75.764  0.00  0.00    -0.239 NA
ATOM      4  H   GLN A   1       4.618  47.894  76.088  0.00  0.00    +0.142 HD
ENDBRANCH   2   3
BRANCH   2   5
ATOM      5  C   GLN A   1       4.823  44.806  77.013  0.00  0.00    +0.224 C 
ATOM      6  O   GLN A   1       5.373  43.680  77.126  0.00  0.00    -0.287 OA
ENDBRANCH   2   5
ENDBRANCH   1   2
BRANCH   1   7
ATOM      7  CG  GLN A   1       5.892  47.328  78.563  0.00  0.00    +0.087 C 
BRANCH   7   8
ATOM      8  CD  GLN A   1       5.592  46.376  79.691  0.00  0.00    +0.219 C 
ATOM      9  NE2 GLN A   1       4.525  46.682  80.512  0.00  0.00    -0.329 N 
ATOM     10 HE21 GLN A   1       4.275  46.048  81.297  0.00  0.00    +0.145 HD
ATOM     11 HE22 GLN A   1       3.972  47.547  80.345  0.00  0.00    +0.145 HD
ATOM     12  OE1 GLN A   1       6.293  45.355  79.840  0.00  0.00    -0.275 OA
ENDBRANCH   7   8
ENDBRANCH   1   7
TORSDOF 5
REMARK  Name = ../refined-set-2016/3qfz/3qfz_pocket.pdb
REMARK  179 active torsions:
REMARK  status: ('A' for Active; 'I' for Inactive)
REMARK    1  A    between atoms: _1  and  _3
REMARK    2  A    between atoms: _3  and  _4
REMARK    3  A    between atoms: _3  and  _6
REMARK    4  A    between atoms: _6  and  _7
REMARK    5  A    between atoms: _9  and  _11
REMARK    6  A    between atoms: _11  and  _12
REMARK    7  A    between atoms: _11  and  _14
REMARK    8  A    between atoms: _14  and  _15
REMARK    9  A    between atoms: _15  and  _16
REMARK   10  A    between atoms: _16  and  _17
REMARK   11  A    between atoms: _26  and  _28
REMARK   12  A    between atoms: _28  and  _29
REMARK   13  A    between atoms: _28  and  _31
REMARK   14  A    between atoms: _31  and  _32
REMARK   15  A    between atoms: _34  and  _36
REMARK   16  A    between atoms: _36  and  _37
REMARK   17  A    between atoms: _36  and  _39
REMARK   18  A    between atoms: _39  and  _40
REMARK   19  A    between atoms: _40  and  _41
REMARK   20  A    between atoms: _44  and  _46
REMARK   21  A    between atoms: _46  and  _47
REMARK   22  A    between atoms: _46  and  _49
REMARK   23  A    between atoms: _49  and  _50
REMARK   24  A    between atoms: _50  and  _51
REMARK   25  A    between atoms: _51  and  _52
REMARK   26  A    between atoms: _61  and  _63
REMARK   27  A    between atoms: _63  and  _64
REMARK   28  A    between atoms: _66  and  _68
REMARK   29  A    between atoms: _68  and  _69
REMARK   30  A    between atoms: _68  and  _71
REMARK   31  A    between atoms: _71  and  _72
REMARK   32  A    between atoms: _78  and  _80
REMARK   33  A    between atoms: _80  and  _81
REMARK   34  A    between atoms: _80  and  _83
REMARK   35  A    between atoms: _84  and  _85
REMARK   36  A    between atoms: _85  and  _86
REMARK   37  A    between atoms: _95  and  _97
REMARK   38  A    between atoms: _97  and  _98
REMARK   39  A    between atoms: _97  and  _100
REMARK   40  A    between atoms: _100  and  _101
REMARK   41  A    between atoms: _104  and  _106
REMARK   42  A    between atoms: _106  and  _107
REMARK   43  A    between atoms: _106  and  _109
REMARK   44  A    between atoms: _109  and  _110
REMARK   45  A    between atoms: _112  and  _114
REMARK   46  A    between atoms: _114  and  _115
REMARK   47  A    between atoms: _114  and  _117
REMARK   48  A    between atoms: _117  and  _118
REMARK   49  A    between atoms: _118  and  _119
REMARK   50  A    between atoms: _124  and  _126
REMARK   51  A    between atoms: _126  and  _127
REMARK   52  A    between atoms: _126  and  _129
REMARK   53  A    between atoms: _129  and  _130
REMARK   54  A    between atoms: _135  and  _137
REMARK   55  A    between atoms: _137  and  _138
REMARK   56  A    between atoms: _137  and  _140
REMARK   57  A    between atoms: _140  and  _141
REMARK   58  A    between atoms: _144  and  _146
REMARK   59  A    between atoms: _146  and  _147
REMARK   60  A    between atoms: _146  and  _149
REMARK   61  A    between atoms: _149  and  _150
REMARK   62  A    between atoms: _156  and  _158
REMARK   63  A    between atoms: _158  and  _159
REMARK   64  A    between atoms: _158  and  _161
REMARK   65  A    between atoms: _161  and  _162
REMARK   66  A    between atoms: _165  and  _167
REMARK   67  A    between atoms: _167  and  _168
REMARK   68  A    between atoms: _167  and  _170
REMARK   69  A    between atoms: _170  and  _171
REMARK   70  A    between atoms: _174  and  _176
REMARK   71  A    between atoms: _176  and  _177
REMARK   72  A    between atoms: _176  and  _179
REMARK   73  A    between atoms: _179  and  _180
REMARK   74  A    between atoms: _190  and  _192
REMARK   75  A    between atoms: _192  and  _193
REMARK   76  A    between atoms: _196  and  _198
REMARK   77  A    between atoms: _198  and  _199
REMARK   78  A    between atoms: _198  and  _201
REMARK   79  A    between atoms: _201  and  _202
REMARK   80  A    between atoms: _205  and  _207
REMARK   81  A    between atoms: _207  and  _208
REMARK   82  A    between atoms: _207  and  _210
REMARK   83  A    between atoms: _210  and  _211
REMARK   84  A    between atoms: _221  and  _223
REMARK   85  A    between atoms: _223  and  _224
REMARK   86  A    between atoms: _223  and  _226
REMARK   87  A    between atoms: _226  and  _227
REMARK   88  A    between atoms: _232  and  _234
REMARK   89  A    between atoms: _234  and  _235
REMARK   90  A    between atoms: _234  and  _237
REMARK   91  A    between atoms: _237  and  _238
REMARK   92  A    between atoms: _241  and  _243
REMARK   93  A    between atoms: _243  and  _244
REMARK   94  A    between atoms: _243  and  _246
REMARK   95  A    between atoms: _248  and  _250
REMARK   96  A    between atoms: _250  and  _251
REMARK   97  A    between atoms: _250  and  _253
REMARK   98  A    between atoms: _253  and  _254
REMARK   99  A    between atoms: _257  and  _259
REMARK  100  A    between atoms: _259  and  _260
REMARK  101  A    between atoms: _259  and  _262
REMARK  102  A    between atoms: _262  and  _263
REMARK  103  A    between atoms: _268  and  _270
REMARK  104  A    between atoms: _270  and  _271
REMARK  105  A    between atoms: _270  and  _273
REMARK  106  A    between atoms: _273  and  _274
REMARK  107  A    between atoms: _274  and  _275
REMARK  108  A    between atoms: _280  and  _282
REMARK  109  A    between atoms: _282  and  _283
REMARK  110  A    between atoms: _282  and  _285
REMARK  111  A    between atoms: _285  and  _286
REMARK  112  A    between atoms: _286  and  _287
REMARK  113  A    between atoms: _287  and  _288
REMARK  114  A    between atoms: _297  and  _299
REMARK  115  A    between atoms: _299  and  _300
REMARK  116  A    between atoms: _299  and  _302
REMARK  117  A    between atoms: _302  and  _303
REMARK  118  A    between atoms: _303  and  _304
REMARK  119  A    between atoms: _307  and  _309
REMARK  120  A    between atoms: _309  and  _310
REMARK  121  A    between atoms: _309  and  _312
REMARK  122  A    between atoms: _312  and  _313
REMARK  123  A    between atoms: _316  and  _318
REMARK  124  A    between atoms: _318  and  _319
REMARK  125  A    between atoms: _318  and  _321
REMARK  126  A    between atoms: _321  and  _322
REMARK  127  A    between atoms: _327  and  _328
REMARK  128  A    between atoms: _330  and  _332
REMARK  129  A    between atoms: _332  and  _333
REMARK  130  A    between atoms: _332  and  _335
REMARK  131  A    between atoms: _335  and  _336
REMARK  132  A    between atoms: _336  and  _337
REMARK  133  A    between atoms: _337  and  _338
REMARK  134  A    between atoms: _338  and  _339
REMARK  135  A    between atoms: _343  and  _345
REMARK  136  A    between atoms: _345  and  _346
REMARK  137  A    between atoms: _345  and  _348
REMARK  138  A    between atoms: _348  and  _349
REMARK  139  A    between atoms: _349  and  _350
REMARK  140  A    between atoms: _353  and  _355
REMARK  141  A    between atoms: _355  and  _356
REMARK  142  A    between atoms: _355  and  _358
REMARK  143  A    between atoms: _358  and  _359
REMARK  144  A    between atoms: _365  and  _367
REMARK  145  A    between atoms: _367  and  _368
REMARK  146  A    between atoms: _367  and  _370
REMARK  147  A    between atoms: _370  and  _371
REMARK  148  A    between atoms: _376  and  _378
REMARK  149  A    between atoms: _378  and  _379
REMARK  150  A    between atoms: _378  and  _381
REMARK  151  A    between atoms: _381  and  _382
REMARK  152  A    between atoms: _387  and  _389
REMARK  153  A    between atoms: _389  and  _390
REMARK  154  A    between atoms: _389  and  _392
REMARK  155  A    between atoms: _392  and  _393
REMARK  156  A    between atoms: _403  and  _405
REMARK  157  A    between atoms: _405  and  _406
REMARK  158  A    between atoms: _405  and  _408
REMARK  159  A    between atoms: _408  and  _409
REMARK  160  A    between atoms: _409  and  _410
REMARK  161  A    between atoms: _415  and  _417
REMARK  162  A    between atoms: _417  and  _418
REMARK  163  A    between atoms: _417  and  _420
REMARK  164  A    between atoms: _420  and  _421
REMARK  165  A    between atoms: _426  and  _428
REMARK  166  A    between atoms: _428  and  _429
REMARK  167  A    between atoms: _428  and  _431
REMARK  168  A    between atoms: _431  and  _432
REMARK  169  A    between atoms: _435  and  _437
REMARK  170  A    between atoms: _437  and  _438
REMARK  171  A    between atoms: _437  and  _440
REMARK  172  A    between atoms: _440  and  _441
REMARK  173  A    between atoms: _444  and  _446
REMARK  174  A    between atoms: _446  and  _447
REMARK  175  A    between atoms: _449  and  _451
REMARK  176  A    between atoms: _451  and  _452
REMARK  177  A    between atoms: _451  and  _454
REMARK  178  A    between atoms: _454  and  _455
REMARK  179  A    between atoms: _455  and  _456
REMARK                            x       y       z     vdW  Elec       q    Type
REMARK                         _______ _______ _______ _____ _____    ______ ____
ROOT
ATOM      1  O   HOH     1      14.561  39.947  79.291  0.00  0.00    +0.000 OA
ENDROOT
TORSDOF 0
REMARK  Name = ../refined-set-2016/3qfz/3qfz_pocket.pdb
REMARK  179 active torsions:
REMARK  status: ('A' for Active; 'I' for Inactive)
REMARK    1  A    between atoms: _1  and  _3
REMARK    2  A    between atoms: _3  and  _4
REMARK    3  A    between atoms: _3  and  _6
REMARK    4  A    between atoms: _6  and  _7
REMARK    5  A    between atoms: _9  and  _11
REMARK    6  A    between atoms: _11  and  _12
REMARK    7  A    between atoms: _11  and  _14
REMARK    8  A    between atoms: _14  and  _15
REMARK    9  A    between atoms: _15  and  _16
REMARK   10  A    between atoms: _16  and  _17
REMARK   11  A    between atoms: _26  and  _28
REMARK   12  A    between atoms: _28  and  _29
REMARK   13  A    between atoms: _28  and  _31
REMARK   14  A    between atoms: _31  and  _32
REMARK   15  A    between atoms: _34  and  _36
REMARK   16  A    between atoms: _36  and  _37
REMARK   17  A    between atoms: _36  and  _39
REMARK   18  A    between atoms: _39  and  _40
REMARK   19  A    between atoms: _40  and  _41
REMARK   20  A    between atoms: _44  and  _46
REMARK   21  A    between atoms: _46  and  _47
REMARK   22  A    between atoms: _46  and  _49
REMARK   23  A    between atoms: _49  and  _50
REMARK   24  A    between atoms: _50  and  _51
REMARK   25  A    between atoms: _51  and  _52
REMARK   26  A    between atoms: _61  and  _63
REMARK   27  A    between atoms: _63  and  _64
REMARK   28  A    between atoms: _66  and  _68
REMARK   29  A    between atoms: _68  and  _69
REMARK   30  A    between atoms: _68  and  _71
REMARK   31  A    between atoms: _71  and  _72
REMARK   32  A    between atoms: _78  and  _80
REMARK   33  A    between atoms: _80  and  _81
REMARK   34  A    between atoms: _80  and  _83
REMARK   35  A    between atoms: _84  and  _85
REMARK   36  A    between atoms: _85  and  _86
REMARK   37  A    between atoms: _95  and  _97
REMARK   38  A    between atoms: _97  and  _98
REMARK   39  A    between atoms: _97  and  _100
REMARK   40  A    between atoms: _100  and  _101
REMARK   41  A    between atoms: _104  and  _106
REMARK   42  A    between atoms: _106  and  _107
REMARK   43  A    between atoms: _106  and  _109
REMARK   44  A    between atoms: _109  and  _110
REMARK   45  A    between atoms: _112  and  _114
REMARK   46  A    between atoms: _114  and  _115
REMARK   47  A    between atoms: _114  and  _117
REMARK   48  A    between atoms: _117  and  _118
REMARK   49  A    between atoms: _118  and  _119
REMARK   50  A    between atoms: _124  and  _126
REMARK   51  A    between atoms: _126  and  _127
REMARK   52  A    between atoms: _126  and  _129
REMARK   53  A    between atoms: _129  and  _130
REMARK   54  A    between atoms: _135  and  _137
REMARK   55  A    between atoms: _137  and  _138
REMARK   56  A    between atoms: _137  and  _140
REMARK   57  A    between atoms: _140  and  _141
REMARK   58  A    between atoms: _144  and  _146
REMARK   59  A    between atoms: _146  and  _147
REMARK   60  A    between atoms: _146  and  _149
REMARK   61  A    between atoms: _149  and  _150
REMARK   62  A    between atoms: _156  and  _158
REMARK   63  A    between atoms: _158  and  _159
REMARK   64  A    between atoms: _158  and  _161
REMARK   65  A    between atoms: _161  and  _162
REMARK   66  A    between atoms: _165  and  _167
REMARK   67  A    between atoms: _167  and  _168
REMARK   68  A    between atoms: _167  and  _170
REMARK   69  A    between atoms: _170  and  _171
REMARK   70  A    between atoms: _174  and  _176
REMARK   71  A    between atoms: _176  and  _177
REMARK   72  A    between atoms: _176  and  _179
REMARK   73  A    between atoms: _179  and  _180
REMARK   74  A    between atoms: _190  and  _192
REMARK   75  A    between atoms: _192  and  _193
REMARK   76  A    between atoms: _196  and  _198
REMARK   77  A    between atoms: _198  and  _199
REMARK   78  A    between atoms: _198  and  _201
REMARK   79  A    between atoms: _201  and  _202
REMARK   80  A    between atoms: _205  and  _207
REMARK   81  A    between atoms: _207  and  _208
REMARK   82  A    between atoms: _207  and  _210
REMARK   83  A    between atoms: _210  and  _211
REMARK   84  A    between atoms: _221  and  _223
REMARK   85  A    between atoms: _223  and  _224
REMARK   86  A    between atoms: _223  and  _226
REMARK   87  A    between atoms: _226  and  _227
REMARK   88  A    between atoms: _232  and  _234
REMARK   89  A    between atoms: _234  and  _235
REMARK   90  A    between atoms: _234  and  _237
REMARK   91  A    between atoms: _237  and  _238
REMARK   92  A    between atoms: _241  and  _243
REMARK   93  A    between atoms: _243  and  _244
REMARK   94  A    between atoms: _243  and  _246
REMARK   95  A    between atoms: _248  and  _250
REMARK   96  A    between atoms: _250  and  _251
REMARK   97  A    between atoms: _250  and  _253
REMARK   98  A    between atoms: _253  and  _254
REMARK   99  A    between atoms: _257  and  _259
REMARK  100  A    between atoms: _259  and  _260
REMARK  101  A    between atoms: _259  and  _262
REMARK  102  A    between atoms: _262  and  _263
REMARK  103  A    between atoms: _268  and  _270
REMARK  104  A    between atoms: _270  and  _271
REMARK  105  A    between atoms: _270  and  _273
REMARK  106  A    between atoms: _273  and  _274
REMARK  107  A    between atoms: _274  and  _275
REMARK  108  A    between atoms: _280  and  _282
REMARK  109  A    between atoms: _282  and  _283
REMARK  110  A    between atoms: _282  and  _285
REMARK  111  A    between atoms: _285  and  _286
REMARK  112  A    between atoms: _286  and  _287
REMARK  113  A    between atoms: _287  and  _288
REMARK  114  A    between atoms: _297  and  _299
REMARK  115  A    between atoms: _299  and  _300
REMARK  116  A    between atoms: _299  and  _302
REMARK  117  A    between atoms: _302  and  _303
REMARK  118  A    between atoms: _303  and  _304
REMARK  119  A    between atoms: _307  and  _309
REMARK  120  A    between atoms: _309  and  _310
REMARK  121  A    between atoms: _309  and  _312
REMARK  122  A    between atoms: _312  and  _313
REMARK  123  A    between atoms: _316  and  _318
REMARK  124  A    between atoms: _318  and  _319
REMARK  125  A    between atoms: _318  and  _321
REMARK  126  A    between atoms: _321  and  _322
REMARK  127  A    between atoms: _327  and  _328
REMARK  128  A    between atoms: _330  and  _332
REMARK  129  A    between atoms: _332  and  _333
REMARK  130  A    between atoms: _332  and  _335
REMARK  131  A    between atoms: _335  and  _336
REMARK  132  A    between atoms: _336  and  _337
REMARK  133  A    between atoms: _337  and  _338
REMARK  134  A    between atoms: _338  and  _339
REMARK  135  A    between atoms: _343  and  _345
REMARK  136  A    between atoms: _345  and  _346
REMARK  137  A    between atoms: _345  and  _348
REMARK  138  A    between atoms: _348  and  _349
REMARK  139  A    between atoms: _349  and  _350
REMARK  140  A    between atoms: _353  and  _355
REMARK  141  A    between atoms: _355  and  _356
REMARK  142  A    between atoms: _355  and  _358
REMARK  143  A    between atoms: _358  and  _359
REMARK  144  A    between atoms: _365  and  _367
REMARK  145  A    between atoms: _367  and  _368
REMARK  146  A    between atoms: _367  and  _370
REMARK  147  A    between atoms: _370  and  _371
REMARK  148  A    between atoms: _376  and  _378
REMARK  149  A    between atoms: _378  and  _379
REMARK  150  A    between atoms: _378  and  _381
REMARK  151  A    between atoms: _381  and  _382
REMARK  152  A    between atoms: _387  and  _389
REMARK  153  A    between atoms: _389  and  _390
REMARK  154  A    between atoms: _389  and  _392
REMARK  155  A    between atoms: _392  and  _393
REMARK  156  A    between atoms: _403  and  _405
REMARK  157  A    between atoms: _405  and  _406
REMARK  158  A    between atoms: _405  and  _408
REMARK  159  A    between atoms: _408  and  _409
REMARK  160  A    between atoms: _409  and  _410
REMARK  161  A    between atoms: _415  and  _417
REMARK  162  A    between atoms: _417  and  _418
REMARK  163  A    between atoms: _417  and  _420
REMARK  164  A    between atoms: _420  and  _421
REMARK  165  A    between atoms: _426  and  _428
REMARK  166  A    between atoms: _428  and  _429
REMARK  167  A    between atoms: _428  and  _431
REMARK  168  A    between atoms: _431  and  _432
REMARK  169  A    between atoms: _435  and  _437
REMARK  170  A    between atoms: _437  and  _438
REMARK  171  A    between atoms: _437  and  _440
REMARK  172  A    between atoms: _440  and  _441
REMARK  173  A    between atoms: _444  and  _446
REMARK  174  A    between atoms: _446  and  _447
REMARK  175  A    between atoms: _449  and  _451
REMARK  176  A    between atoms: _451  and  _452
REMARK  177  A    between atoms: _451  and  _454
REMARK  178  A    between atoms: _454  and  _455
REMARK  179  A    between atoms: _455  and  _456
REMARK                            x       y       z     vdW  Elec       q    Type
REMARK                         _______ _______ _______ _____ _____    ______ ____
ROOT
ATOM      1  O   HOH     1      11.852  46.625  76.470  0.00  0.00    +0.000 OA
ENDROOT
TORSDOF 0
REMARK  Name = ../refined-set-2016/3qfz/3qfz_pocket.pdb
REMARK  179 active torsions:
REMARK  status: ('A' for Active; 'I' for Inactive)
REMARK    1  A    between atoms: _1  and  _3
REMARK    2  A    between atoms: _3  and  _4
REMARK    3  A    between atoms: _3  and  _6
REMARK    4  A    between atoms: _6  and  _7
REMARK    5  A    between atoms: _9  and  _11
REMARK    6  A    between atoms: _11  and  _12
REMARK    7  A    between atoms: _11  and  _14
REMARK    8  A    between atoms: _14  and  _15
REMARK    9  A    between atoms: _15  and  _16
REMARK   10  A    between atoms: _16  and  _17
REMARK   11  A    between atoms: _26  and  _28
REMARK   12  A    between atoms: _28  and  _29
REMARK   13  A    between atoms: _28  and  _31
REMARK   14  A    between atoms: _31  and  _32
REMARK   15  A    between atoms: _34  and  _36
REMARK   16  A    between atoms: _36  and  _37
REMARK   17  A    between atoms: _36  and  _39
REMARK   18  A    between atoms: _39  and  _40
REMARK   19  A    between atoms: _40  and  _41
REMARK   20  A    between atoms: _44  and  _46
REMARK   21  A    between atoms: _46  and  _47
REMARK   22  A    between atoms: _46  and  _49
REMARK   23  A    between atoms: _49  and  _50
REMARK   24  A    between atoms: _50  and  _51
REMARK   25  A    between atoms: _51  and  _52
REMARK   26  A    between atoms: _61  and  _63
REMARK   27  A    between atoms: _63  and  _64
REMARK   28  A    between atoms: _66  and  _68
REMARK   29  A    between atoms: _68  and  _69
REMARK   30  A    between atoms: _68  and  _71
REMARK   31  A    between atoms: _71  and  _72
REMARK   32  A    between atoms: _78  and  _80
REMARK   33  A    between atoms: _80  and  _81
REMARK   34  A    between atoms: _80  and  _83
REMARK   35  A    between atoms: _84  and  _85
REMARK   36  A    between atoms: _85  and  _86
REMARK   37  A    between atoms: _95  and  _97
REMARK   38  A    between atoms: _97  and  _98
REMARK   39  A    between atoms: _97  and  _100
REMARK   40  A    between atoms: _100  and  _101
REMARK   41  A    between atoms: _104  and  _106
REMARK   42  A    between atoms: _106  and  _107
REMARK   43  A    between atoms: _106  and  _109
REMARK   44  A    between atoms: _109  and  _110
REMARK   45  A    between atoms: _112  and  _114
REMARK   46  A    between atoms: _114  and  _115
REMARK   47  A    between atoms: _114  and  _117
REMARK   48  A    between atoms: _117  and  _118
REMARK   49  A    between atoms: _118  and  _119
REMARK   50  A    between atoms: _124  and  _126
REMARK   51  A    between atoms: _126  and  _127
REMARK   52  A    between atoms: _126  and  _129
REMARK   53  A    between atoms: _129  and  _130
REMARK   54  A    between atoms: _135  and  _137
REMARK   55  A    between atoms: _137  and  _138
REMARK   56  A    between atoms: _137  and  _140
REMARK   57  A    between atoms: _140  and  _141
REMARK   58  A    between atoms: _144  and  _146
REMARK   59  A    between atoms: _146  and  _147
REMARK   60  A    between atoms: _146  and  _149
REMARK   61  A    between atoms: _149  and  _150
REMARK   62  A    between atoms: _156  and  _158
REMARK   63  A    between atoms: _158  and  _159
REMARK   64  A    between atoms: _158  and  _161
REMARK   65  A    between atoms: _161  and  _162
REMARK   66  A    between atoms: _165  and  _167
REMARK   67  A    between atoms: _167  and  _168
REMARK   68  A    between atoms: _167  and  _170
REMARK   69  A    between atoms: _170  and  _171
REMARK   70  A    between atoms: _174  and  _176
REMARK   71  A    between atoms: _176  and  _177
REMARK   72  A    between atoms: _176  and  _179
REMARK   73  A    between atoms: _179  and  _180
REMARK   74  A    between atoms: _190  and  _192
REMARK   75  A    between atoms: _192  and  _193
REMARK   76  A    between atoms: _196  and  _198
REMARK   77  A    between atoms: _198  and  _199
REMARK   78  A    between atoms: _198  and  _201
REMARK   79  A    between atoms: _201  and  _202
REMARK   80  A    between atoms: _205  and  _207
REMARK   81  A    between atoms: _207  and  _208
REMARK   82  A    between atoms: _207  and  _210
REMARK   83  A    between atoms: _210  and  _211
REMARK   84  A    between atoms: _221  and  _223
REMARK   85  A    between atoms: _223  and  _224
REMARK   86  A    between atoms: _223  and  _226
REMARK   87  A    between atoms: _226  and  _227
REMARK   88  A    between atoms: _232  and  _234
REMARK   89  A    between atoms: _234  and  _235
REMARK   90  A    between atoms: _234  and  _237
REMARK   91  A    between atoms: _237  and  _238
REMARK   92  A    between atoms: _241  and  _243
REMARK   93  A    between atoms: _243  and  _244
REMARK   94  A    between atoms: _243  and  _246
REMARK   95  A    between atoms: _248  and  _250
REMARK   96  A    between atoms: _250  and  _251
REMARK   97  A    between atoms: _250  and  _253
REMARK   98  A    between atoms: _253  and  _254
REMARK   99  A    between atoms: _257  and  _259
REMARK  100  A    between atoms: _259  and  _260
REMARK  101  A    between atoms: _259  and  _262
REMARK  102  A    between atoms: _262  and  _263
REMARK  103  A    between atoms: _268  and  _270
REMARK  104  A    between atoms: _270  and  _271
REMARK  105  A    between atoms: _270  and  _273
REMARK  106  A    between atoms: _273  and  _274
REMARK  107  A    between atoms: _274  and  _275
REMARK  108  A    between atoms: _280  and  _282
REMARK  109  A    between atoms: _282  and  _283
REMARK  110  A    between atoms: _282  and  _285
REMARK  111  A    between atoms: _285  and  _286
REMARK  112  A    between atoms: _286  and  _287
REMARK  113  A    between atoms: _287  and  _288
REMARK  114  A    between atoms: _297  and  _299
REMARK  115  A    between atoms: _299  and  _300
REMARK  116  A    between atoms: _299  and  _302
REMARK  117  A    between atoms: _302  and  _303
REMARK  118  A    between atoms: _303  and  _304
REMARK  119  A    between atoms: _307  and  _309
REMARK  120  A    between atoms: _309  and  _310
REMARK  121  A    between atoms: _309  and  _312
REMARK  122  A    between atoms: _312  and  _313
REMARK  123  A    between atoms: _316  and  _318
REMARK  124  A    between atoms: _318  and  _319
REMARK  125  A    between atoms: _318  and  _321
REMARK  126  A    between atoms: _321  and  _322
REMARK  127  A    between atoms: _327  and  _328
REMARK  128  A    between atoms: _330  and  _332
REMARK  129  A    between atoms: _332  and  _333
REMARK  130  A    between atoms: _332  and  _335
REMARK  131  A    between atoms: _335  and  _336
REMARK  132  A    between atoms: _336  and  _337
REMARK  133  A    between atoms: _337  and  _338
REMARK  134  A    between atoms: _338  and  _339
REMARK  135  A    between atoms: _343  and  _345
REMARK  136  A    between atoms: _345  and  _346
REMARK  137  A    between atoms: _345  and  _348
REMARK  138  A    between atoms: _348  and  _349
REMARK  139  A    between atoms: _349  and  _350
REMARK  140  A    between atoms: _353  and  _355
REMARK  141  A    between atoms: _355  and  _356
REMARK  142  A    between atoms: _355  and  _358
REMARK  143  A    between atoms: _358  and  _359
REMARK  144  A    between atoms: _365  and  _367
REMARK  145  A    between atoms: _367  and  _368
REMARK  146  A    between atoms: _367  and  _370
REMARK  147  A    between atoms: _370  and  _371
REMARK  148  A    between atoms: _376  and  _378
REMARK  149  A    between atoms: _378  and  _379
REMARK  150  A    between atoms: _378  and  _381
REMARK  151  A    between atoms: _381  and  _382
REMARK  152  A    between atoms: _387  and  _389
REMARK  153  A    between atoms: _389  and  _390
REMARK  154  A    between atoms: _389  and  _392
REMARK  155  A    between atoms: _392  and  _393
REMARK  156  A    between atoms: _403  and  _405
REMARK  157  A    between atoms: _405  and  _406
REMARK  158  A    between atoms: _405  and  _408
REMARK  159  A    between atoms: _408  and  _409
REMARK  160  A    between atoms: _409  and  _410
REMARK  161  A    between atoms: _415  and  _417
REMARK  162  A    between atoms: _417  and  _418
REMARK  163  A    between atoms: _417  and  _420
REMARK  164  A    between atoms: _420  and  _421
REMARK  165  A    between atoms: _426  and  _428
REMARK  166  A    between atoms: _428  and  _429
REMARK  167  A    between atoms: _428  and  _431
REMARK  168  A    between atoms: _431  and  _432
REMARK  169  A    between atoms: _435  and  _437
REMARK  170  A    between atoms: _437  and  _438
REMARK  171  A    between atoms: _437  and  _440
REMARK  172  A    between atoms: _440  and  _441
REMARK  173  A    between atoms: _444  and  _446
REMARK  174  A    between atoms: _446  and  _447
REMARK  175  A    between atoms: _449  and  _451
REMARK  176  A    between atoms: _451  and  _452
REMARK  177  A    between atoms: _451  and  _454
REMARK  178  A    between atoms: _454  and  _455
REMARK  179  A    between atoms: _455  and  _456
REMARK                            x       y       z     vdW  Elec       q    Type
REMARK                         _______ _______ _______ _____ _____    ______ ____
ROOT
ATOM      1  O   HOH     1      12.883  52.298  83.048  0.00  0.00    +0.000 OA
ENDROOT
TORSDOF 0
REMARK  Name = ../refined-set-2016/3qfz/3qfz_pocket.pdb
REMARK  179 active torsions:
REMARK  status: ('A' for Active; 'I' for Inactive)
REMARK    1  A    between atoms: _1  and  _3
REMARK    2  A    between atoms: _3  and  _4
REMARK    3  A    between atoms: _3  and  _6
REMARK    4  A    between atoms: _6  and  _7
REMARK    5  A    between atoms: _9  and  _11
REMARK    6  A    between atoms: _11  and  _12
REMARK    7  A    between atoms: _11  and  _14
REMARK    8  A    between atoms: _14  and  _15
REMARK    9  A    between atoms: _15  and  _16
REMARK   10  A    between atoms: _16  and  _17
REMARK   11  A    between atoms: _26  and  _28
REMARK   12  A    between atoms: _28  and  _29
REMARK   13  A    between atoms: _28  and  _31
REMARK   14  A    between atoms: _31  and  _32
REMARK   15  A    between atoms: _34  and  _36
REMARK   16  A    between atoms: _36  and  _37
REMARK   17  A    between atoms: _36  and  _39
REMARK   18  A    between atoms: _39  and  _40
REMARK   19  A    between atoms: _40  and  _41
REMARK   20  A    between atoms: _44  and  _46
REMARK   21  A    between atoms: _46  and  _47
REMARK   22  A    between atoms: _46  and  _49
REMARK   23  A    between atoms: _49  and  _50
REMARK   24  A    between atoms: _50  and  _51
REMARK   25  A    between atoms: _51  and  _52
REMARK   26  A    between atoms: _61  and  _63
REMARK   27  A    between atoms: _63  and  _64
REMARK   28  A    between atoms: _66  and  _68
REMARK   29  A    between atoms: _68  and  _69
REMARK   30  A    between atoms: _68  and  _71
REMARK   31  A    between atoms: _71  and  _72
REMARK   32  A    between atoms: _78  and  _80
REMARK   33  A    between atoms: _80  and  _81
REMARK   34  A    between atoms: _80  and  _83
REMARK   35  A    between atoms: _84  and  _85
REMARK   36  A    between atoms: _85  and  _86
REMARK   37  A    between atoms: _95  and  _97
REMARK   38  A    between atoms: _97  and  _98
REMARK   39  A    between atoms: _97  and  _100
REMARK   40  A    between atoms: _100  and  _101
REMARK   41  A    between atoms: _104  and  _106
REMARK   42  A    between atoms: _106  and  _107
REMARK   43  A    between atoms: _106  and  _109
REMARK   44  A    between atoms: _109  and  _110
REMARK   45  A    between atoms: _112  and  _114
REMARK   46  A    between atoms: _114  and  _115
REMARK   47  A    between atoms: _114  and  _117
REMARK   48  A    between atoms: _117  and  _118
REMARK   49  A    between atoms: _118  and  _119
REMARK   50  A    between atoms: _124  and  _126
REMARK   51  A    between atoms: _126  and  _127
REMARK   52  A    between atoms: _126  and  _129
REMARK   53  A    between atoms: _129  and  _130
REMARK   54  A    between atoms: _135  and  _137
REMARK   55  A    between atoms: _137  and  _138
REMARK   56  A    between atoms: _137  and  _140
REMARK   57  A    between atoms: _140  and  _141
REMARK   58  A    between atoms: _144  and  _146
REMARK   59  A    between atoms: _146  and  _147
REMARK   60  A    between atoms: _146  and  _149
REMARK   61  A    between atoms: _149  and  _150
REMARK   62  A    between atoms: _156  and  _158
REMARK   63  A    between atoms: _158  and  _159
REMARK   64  A    between atoms: _158  and  _161
REMARK   65  A    between atoms: _161  and  _162
REMARK   66  A    between atoms: _165  and  _167
REMARK   67  A    between atoms: _167  and  _168
REMARK   68  A    between atoms: _167  and  _170
REMARK   69  A    between atoms: _170  and  _171
REMARK   70  A    between atoms: _174  and  _176
REMARK   71  A    between atoms: _176  and  _177
REMARK   72  A    between atoms: _176  and  _179
REMARK   73  A    between atoms: _179  and  _180
REMARK   74  A    between atoms: _190  and  _192
REMARK   75  A    between atoms: _192  and  _193
REMARK   76  A    between atoms: _196  and  _198
REMARK   77  A    between atoms: _198  and  _199
REMARK   78  A    between atoms: _198  and  _201
REMARK   79  A    between atoms: _201  and  _202
REMARK   80  A    between atoms: _205  and  _207
REMARK   81  A    between atoms: _207  and  _208
REMARK   82  A    between atoms: _207  and  _210
REMARK   83  A    between atoms: _210  and  _211
REMARK   84  A    between atoms: _221  and  _223
REMARK   85  A    between atoms: _223  and  _224
REMARK   86  A    between atoms: _223  and  _226
REMARK   87  A    between atoms: _226  and  _227
REMARK   88  A    between atoms: _232  and  _234
REMARK   89  A    between atoms: _234  and  _235
REMARK   90  A    between atoms: _234  and  _237
REMARK   91  A    between atoms: _237  and  _238
REMARK   92  A    between atoms: _241  and  _243
REMARK   93  A    between atoms: _243  and  _244
REMARK   94  A    between atoms: _243  and  _246
REMARK   95  A    between atoms: _248  and  _250
REMARK   96  A    between atoms: _250  and  _251
REMARK   97  A    between atoms: _250  and  _253
REMARK   98  A    between atoms: _253  and  _254
REMARK   99  A    between atoms: _257  and  _259
REMARK  100  A    between atoms: _259  and  _260
REMARK  101  A    between atoms: _259  and  _262
REMARK  102  A    between atoms: _262  and  _263
REMARK  103  A    between atoms: _268  and  _270
REMARK  104  A    between atoms: _270  and  _271
REMARK  105  A    between atoms: _270  and  _273
REMARK  106  A    between atoms: _273  and  _274
REMARK  107  A    between atoms: _274  and  _275
REMARK  108  A    between atoms: _280  and  _282
REMARK  109  A    between atoms: _282  and  _283
REMARK  110  A    between atoms: _282  and  _285
REMARK  111  A    between atoms: _285  and  _286
REMARK  112  A    between atoms: _286  and  _287
REMARK  113  A    between atoms: _287  and  _288
REMARK  114  A    between atoms: _297  and  _299
REMARK  115  A    between atoms: _299  and  _300
REMARK  116  A    between atoms: _299  and  _302
REMARK  117  A    between atoms: _302  and  _303
REMARK  118  A    between atoms: _303  and  _304
REMARK  119  A    between atoms: _307  and  _309
REMARK  120  A    between atoms: _309  and  _310
REMARK  121  A    between atoms: _309  and  _312
REMARK  122  A    between atoms: _312  and  _313
REMARK  123  A    between atoms: _316  and  _318
REMARK  124  A    between atoms: _318  and  _319
REMARK  125  A    between atoms: _318  and  _321
REMARK  126  A    between atoms: _321  and  _322
REMARK  127  A    between atoms: _327  and  _328
REMARK  128  A    between atoms: _330  and  _332
REMARK  129  A    between atoms: _332  and  _333
REMARK  130  A    between atoms: _332  and  _335
REMARK  131  A    between atoms: _335  and  _336
REMARK  132  A    between atoms: _336  and  _337
REMARK  133  A    between atoms: _337  and  _338
REMARK  134  A    between atoms: _338  and  _339
REMARK  135  A    between atoms: _343  and  _345
REMARK  136  A    between atoms: _345  and  _346
REMARK  137  A    between atoms: _345  and  _348
REMARK  138  A    between atoms: _348  and  _349
REMARK  139  A    between atoms: _349  and  _350
REMARK  140  A    between atoms: _353  and  _355
REMARK  141  A    between atoms: _355  and  _356
REMARK  142  A    between atoms: _355  and  _358
REMARK  143  A    between atoms: _358  and  _359
REMARK  144  A    between atoms: _365  and  _367
REMARK  145  A    between atoms: _367  and  _368
REMARK  146  A    between atoms: _367  and  _370
REMARK  147  A    between atoms: _370  and  _371
REMARK  148  A    between atoms: _376  and  _378
REMARK  149  A    between atoms: _378  and  _379
REMARK  150  A    between atoms: _378  and  _381
REMARK  151  A    between atoms: _381  and  _382
REMARK  152  A    between atoms: _387  and  _389
REMARK  153  A    between atoms: _389  and  _390
REMARK  154  A    between atoms: _389  and  _392
REMARK  155  A    between atoms: _392  and  _393
REMARK  156  A    between atoms: _403  and  _405
REMARK  157  A    between atoms: _405  and  _406
REMARK  158  A    between atoms: _405  and  _408
REMARK  159  A    between atoms: _408  and  _409
REMARK  160  A    between atoms: _409  and  _410
REMARK  161  A    between atoms: _415  and  _417
REMARK  162  A    between atoms: _417  and  _418
REMARK  163  A    between atoms: _417  and  _420
REMARK  164  A    between atoms: _420  and  _421
REMARK  165  A    between atoms: _426  and  _428
REMARK  166  A    between atoms: _428  and  _429
REMARK  167  A    between atoms: _428  and  _431
REMARK  168  A    between atoms: _431  and  _432
REMARK  169  A    between atoms: _435  and  _437
REMARK  170  A    between atoms: _437  and  _438
REMARK  171  A    between atoms: _437  and  _440
REMARK  172  A    between atoms: _440  and  _441
REMARK  173  A    between atoms: _444  and  _446
REMARK  174  A    between atoms: _446  and  _447
REMARK  175  A    between atoms: _449  and  _451
REMARK  176  A    between atoms: _451  and  _452
REMARK  177  A    between atoms: _451  and  _454
REMARK  178  A    between atoms: _454  and  _455
REMARK  179  A    between atoms: _455  and  _456
REMARK                            x       y       z     vdW  Elec       q    Type
REMARK                         _______ _______ _______ _____ _____    ______ ____
ROOT
ATOM      1  O   HOH     1      13.362  48.618  89.618  0.00  0.00    +0.000 OA
ENDROOT
TORSDOF 0
REMARK  Name = ../refined-set-2016/3qfz/3qfz_pocket.pdb
REMARK  179 active torsions:
REMARK  status: ('A' for Active; 'I' for Inactive)
REMARK    1  A    between atoms: _1  and  _3
REMARK    2  A    between atoms: _3  and  _4
REMARK    3  A    between atoms: _3  and  _6
REMARK    4  A    between atoms: _6  and  _7
REMARK    5  A    between atoms: _9  and  _11
REMARK    6  A    between atoms: _11  and  _12
REMARK    7  A    between atoms: _11  and  _14
REMARK    8  A    between atoms: _14  and  _15
REMARK    9  A    between atoms: _15  and  _16
REMARK   10  A    between atoms: _16  and  _17
REMARK   11  A    between atoms: _26  and  _28
REMARK   12  A    between atoms: _28  and  _29
REMARK   13  A    between atoms: _28  and  _31
REMARK   14  A    between atoms: _31  and  _32
REMARK   15  A    between atoms: _34  and  _36
REMARK   16  A    between atoms: _36  and  _37
REMARK   17  A    between atoms: _36  and  _39
REMARK   18  A    between atoms: _39  and  _40
REMARK   19  A    between atoms: _40  and  _41
REMARK   20  A    between atoms: _44  and  _46
REMARK   21  A    between atoms: _46  and  _47
REMARK   22  A    between atoms: _46  and  _49
REMARK   23  A    between atoms: _49  and  _50
REMARK   24  A    between atoms: _50  and  _51
REMARK   25  A    between atoms: _51  and  _52
REMARK   26  A    between atoms: _61  and  _63
REMARK   27  A    between atoms: _63  and  _64
REMARK   28  A    between atoms: _66  and  _68
REMARK   29  A    between atoms: _68  and  _69
REMARK   30  A    between atoms: _68  and  _71
REMARK   31  A    between atoms: _71  and  _72
REMARK   32  A    between atoms: _78  and  _80
REMARK   33  A    between atoms: _80  and  _81
REMARK   34  A    between atoms: _80  and  _83
REMARK   35  A    between atoms: _84  and  _85
REMARK   36  A    between atoms: _85  and  _86
REMARK   37  A    between atoms: _95  and  _97
REMARK   38  A    between atoms: _97  and  _98
REMARK   39  A    between atoms: _97  and  _100
REMARK   40  A    between atoms: _100  and  _101
REMARK   41  A    between atoms: _104  and  _106
REMARK   42  A    between atoms: _106  and  _107
REMARK   43  A    between atoms: _106  and  _109
REMARK   44  A    between atoms: _109  and  _110
REMARK   45  A    between atoms: _112  and  _114
REMARK   46  A    between atoms: _114  and  _115
REMARK   47  A    between atoms: _114  and  _117
REMARK   48  A    between atoms: _117  and  _118
REMARK   49  A    between atoms: _118  and  _119
REMARK   50  A    between atoms: _124  and  _126
REMARK   51  A    between atoms: _126  and  _127
REMARK   52  A    between atoms: _126  and  _129
REMARK   53  A    between atoms: _129  and  _130
REMARK   54  A    between atoms: _135  and  _137
REMARK   55  A    between atoms: _137  and  _138
REMARK   56  A    between atoms: _137  and  _140
REMARK   57  A    between atoms: _140  and  _141
REMARK   58  A    between atoms: _144  and  _146
REMARK   59  A    between atoms: _146  and  _147
REMARK   60  A    between atoms: _146  and  _149
REMARK   61  A    between atoms: _149  and  _150
REMARK   62  A    between atoms: _156  and  _158
REMARK   63  A    between atoms: _158  and  _159
REMARK   64  A    between atoms: _158  and  _161
REMARK   65  A    between atoms: _161  and  _162
REMARK   66  A    between atoms: _165  and  _167
REMARK   67  A    between atoms: _167  and  _168
REMARK   68  A    between atoms: _167  and  _170
REMARK   69  A    between atoms: _170  and  _171
REMARK   70  A    between atoms: _174  and  _176
REMARK   71  A    between atoms: _176  and  _177
REMARK   72  A    between atoms: _176  and  _179
REMARK   73  A    between atoms: _179  and  _180
REMARK   74  A    between atoms: _190  and  _192
REMARK   75  A    between atoms: _192  and  _193
REMARK   76  A    between atoms: _196  and  _198
REMARK   77  A    between atoms: _198  and  _199
REMARK   78  A    between atoms: _198  and  _201
REMARK   79  A    between atoms: _201  and  _202
REMARK   80  A    between atoms: _205  and  _207
REMARK   81  A    between atoms: _207  and  _208
REMARK   82  A    between atoms: _207  and  _210
REMARK   83  A    between atoms: _210  and  _211
REMARK   84  A    between atoms: _221  and  _223
REMARK   85  A    between atoms: _223  and  _224
REMARK   86  A    between atoms: _223  and  _226
REMARK   87  A    between atoms: _226  and  _227
REMARK   88  A    between atoms: _232  and  _234
REMARK   89  A    between atoms: _234  and  _235
REMARK   90  A    between atoms: _234  and  _237
REMARK   91  A    between atoms: _237  and  _238
REMARK   92  A    between atoms: _241  and  _243
REMARK   93  A    between atoms: _243  and  _244
REMARK   94  A    between atoms: _243  and  _246
REMARK   95  A    between atoms: _248  and  _250
REMARK   96  A    between atoms: _250  and  _251
REMARK   97  A    between atoms: _250  and  _253
REMARK   98  A    between atoms: _253  and  _254
REMARK   99  A    between atoms: _257  and  _259
REMARK  100  A    between atoms: _259  and  _260
REMARK  101  A    between atoms: _259  and  _262
REMARK  102  A    between atoms: _262  and  _263
REMARK  103  A    between atoms: _268  and  _270
REMARK  104  A    between atoms: _270  and  _271
REMARK  105  A    between atoms: _270  and  _273
REMARK  106  A    between atoms: _273  and  _274
REMARK  107  A    between atoms: _274  and  _275
REMARK  108  A    between atoms: _280  and  _282
REMARK  109  A    between atoms: _282  and  _283
REMARK  110  A    between atoms: _282  and  _285
REMARK  111  A    between atoms: _285  and  _286
REMARK  112  A    between atoms: _286  and  _287
REMARK  113  A    between atoms: _287  and  _288
REMARK  114  A    between atoms: _297  and  _299
REMARK  115  A    between atoms: _299  and  _300
REMARK  116  A    between atoms: _299  and  _302
REMARK  117  A    between atoms: _302  and  _303
REMARK  118  A    between atoms: _303  and  _304
REMARK  119  A    between atoms: _307  and  _309
REMARK  120  A    between atoms: _309  and  _310
REMARK  121  A    between atoms: _309  and  _312
REMARK  122  A    between atoms: _312  and  _313
REMARK  123  A    between atoms: _316  and  _318
REMARK  124  A    between atoms: _318  and  _319
REMARK  125  A    between atoms: _318  and  _321
REMARK  126  A    between atoms: _321  and  _322
REMARK  127  A    between atoms: _327  and  _328
REMARK  128  A    between atoms: _330  and  _332
REMARK  129  A    between atoms: _332  and  _333
REMARK  130  A    between atoms: _332  and  _335
REMARK  131  A    between atoms: _335  and  _336
REMARK  132  A    between atoms: _336  and  _337
REMARK  133  A    between atoms: _337  and  _338
REMARK  134  A    between atoms: _338  and  _339
REMARK  135  A    between atoms: _343  and  _345
REMARK  136  A    between atoms: _345  and  _346
REMARK  137  A    between atoms: _345  and  _348
REMARK  138  A    between atoms: _348  and  _349
REMARK  139  A    between atoms: _349  and  _350
REMARK  140  A    between atoms: _353  and  _355
REMARK  141  A    between atoms: _355  and  _356
REMARK  142  A    between atoms: _355  and  _358
REMARK  143  A    between atoms: _358  and  _359
REMARK  144  A    between atoms: _365  and  _367
REMARK  145  A    between atoms: _367  and  _368
REMARK  146  A    between atoms: _367  and  _370
REMARK  147  A    between atoms: _370  and  _371
REMARK  148  A    between atoms: _376  and  _378
REMARK  149  A    between atoms: _378  and  _379
REMARK  150  A    between atoms: _378  and  _381
REMARK  151  A    between atoms: _381  and  _382
REMARK  152  A    between atoms: _387  and  _389
REMARK  153  A    between atoms: _389  and  _390
REMARK  154  A    between atoms: _389  and  _392
REMARK  155  A    between atoms: _392  and  _393
REMARK  156  A    between atoms: _403  and  _405
REMARK  157  A    between atoms: _405  and  _406
REMARK  158  A    between atoms: _405  and  _408
REMARK  159  A    between atoms: _408  and  _409
REMARK  160  A    between atoms: _409  and  _410
REMARK  161  A    between atoms: _415  and  _417
REMARK  162  A    between atoms: _417  and  _418
REMARK  163  A    between atoms: _417  and  _420
REMARK  164  A    between atoms: _420  and  _421
REMARK  165  A    between atoms: _426  and  _428
REMARK  166  A    between atoms: _428  and  _429
REMARK  167  A    between atoms: _428  and  _431
REMARK  168  A    between atoms: _431  and  _432
REMARK  169  A    between atoms: _435  and  _437
REMARK  170  A    between atoms: _437  and  _438
REMARK  171  A    between atoms: _437  and  _440
REMARK  172  A    between atoms: _440  and  _441
REMARK  173  A    between atoms: _444  and  _446
REMARK  174  A    between atoms: _446  and  _447
REMARK  175  A    between atoms: _449  and  _451
REMARK  176  A    between atoms: _451  and  _452
REMARK  177  A    between atoms: _451  and  _454
REMARK  178  A    between atoms: _454  and  _455
REMARK  179  A    between atoms: _455  and  _456
REMARK                            x       y       z     vdW  Elec       q    Type
REMARK                         _______ _______ _______ _____ _____    ______ ____
ROOT
ATOM      1  O   HOH     1       6.564  47.681  87.518  0.00  0.00    +0.000 OA
ENDROOT
TORSDOF 0
REMARK  Name = ../refined-set-2016/3qfz/3qfz_pocket.pdb
REMARK  179 active torsions:
REMARK  status: ('A' for Active; 'I' for Inactive)
REMARK    1  A    between atoms: _1  and  _3
REMARK    2  A    between atoms: _3  and  _4
REMARK    3  A    between atoms: _3  and  _6
REMARK    4  A    between atoms: _6  and  _7
REMARK    5  A    between atoms: _9  and  _11
REMARK    6  A    between atoms: _11  and  _12
REMARK    7  A    between atoms: _11  and  _14
REMARK    8  A    between atoms: _14  and  _15
REMARK    9  A    between atoms: _15  and  _16
REMARK   10  A    between atoms: _16  and  _17
REMARK   11  A    between atoms: _26  and  _28
REMARK   12  A    between atoms: _28  and  _29
REMARK   13  A    between atoms: _28  and  _31
REMARK   14  A    between atoms: _31  and  _32
REMARK   15  A    between atoms: _34  and  _36
REMARK   16  A    between atoms: _36  and  _37
REMARK   17  A    between atoms: _36  and  _39
REMARK   18  A    between atoms: _39  and  _40
REMARK   19  A    between atoms: _40  and  _41
REMARK   20  A    between atoms: _44  and  _46
REMARK   21  A    between atoms: _46  and  _47
REMARK   22  A    between atoms: _46  and  _49
REMARK   23  A    between atoms: _49  and  _50
REMARK   24  A    between atoms: _50  and  _51
REMARK   25  A    between atoms: _51  and  _52
REMARK   26  A    between atoms: _61  and  _63
REMARK   27  A    between atoms: _63  and  _64
REMARK   28  A    between atoms: _66  and  _68
REMARK   29  A    between atoms: _68  and  _69
REMARK   30  A    between atoms: _68  and  _71
REMARK   31  A    between atoms: _71  and  _72
REMARK   32  A    between atoms: _78  and  _80
REMARK   33  A    between atoms: _80  and  _81
REMARK   34  A    between atoms: _80  and  _83
REMARK   35  A    between atoms: _84  and  _85
REMARK   36  A    between atoms: _85  and  _86
REMARK   37  A    between atoms: _95  and  _97
REMARK   38  A    between atoms: _97  and  _98
REMARK   39  A    between atoms: _97  and  _100
REMARK   40  A    between atoms: _100  and  _101
REMARK   41  A    between atoms: _104  and  _106
REMARK   42  A    between atoms: _106  and  _107
REMARK   43  A    between atoms: _106  and  _109
REMARK   44  A    between atoms: _109  and  _110
REMARK   45  A    between atoms: _112  and  _114
REMARK   46  A    between atoms: _114  and  _115
REMARK   47  A    between atoms: _114  and  _117
REMARK   48  A    between atoms: _117  and  _118
REMARK   49  A    between atoms: _118  and  _119
REMARK   50  A    between atoms: _124  and  _126
REMARK   51  A    between atoms: _126  and  _127
REMARK   52  A    between atoms: _126  and  _129
REMARK   53  A    between atoms: _129  and  _130
REMARK   54  A    between atoms: _135  and  _137
REMARK   55  A    between atoms: _137  and  _138
REMARK   56  A    between atoms: _137  and  _140
REMARK   57  A    between atoms: _140  and  _141
REMARK   58  A    between atoms: _144  and  _146
REMARK   59  A    between atoms: _146  and  _147
REMARK   60  A    between atoms: _146  and  _149
REMARK   61  A    between atoms: _149  and  _150
REMARK   62  A    between atoms: _156  and  _158
REMARK   63  A    between atoms: _158  and  _159
REMARK   64  A    between atoms: _158  and  _161
REMARK   65  A    between atoms: _161  and  _162
REMARK   66  A    between atoms: _165  and  _167
REMARK   67  A    between atoms: _167  and  _168
REMARK   68  A    between atoms: _167  and  _170
REMARK   69  A    between atoms: _170  and  _171
REMARK   70  A    between atoms: _174  and  _176
REMARK   71  A    between atoms: _176  and  _177
REMARK   72  A    between atoms: _176  and  _179
REMARK   73  A    between atoms: _179  and  _180
REMARK   74  A    between atoms: _190  and  _192
REMARK   75  A    between atoms: _192  and  _193
REMARK   76  A    between atoms: _196  and  _198
REMARK   77  A    between atoms: _198  and  _199
REMARK   78  A    between atoms: _198  and  _201
REMARK   79  A    between atoms: _201  and  _202
REMARK   80  A    between atoms: _205  and  _207
REMARK   81  A    between atoms: _207  and  _208
REMARK   82  A    between atoms: _207  and  _210
REMARK   83  A    between atoms: _210  and  _211
REMARK   84  A    between atoms: _221  and  _223
REMARK   85  A    between atoms: _223  and  _224
REMARK   86  A    between atoms: _223  and  _226
REMARK   87  A    between atoms: _226  and  _227
REMARK   88  A    between atoms: _232  and  _234
REMARK   89  A    between atoms: _234  and  _235
REMARK   90  A    between atoms: _234  and  _237
REMARK   91  A    between atoms: _237  and  _238
REMARK   92  A    between atoms: _241  and  _243
REMARK   93  A    between atoms: _243  and  _244
REMARK   94  A    between atoms: _243  and  _246
REMARK   95  A    between atoms: _248  and  _250
REMARK   96  A    between atoms: _250  and  _251
REMARK   97  A    between atoms: _250  and  _253
REMARK   98  A    between atoms: _253  and  _254
REMARK   99  A    between atoms: _257  and  _259
REMARK  100  A    between atoms: _259  and  _260
REMARK  101  A    between atoms: _259  and  _262
REMARK  102  A    between atoms: _262  and  _263
REMARK  103  A    between atoms: _268  and  _270
REMARK  104  A    between atoms: _270  and  _271
REMARK  105  A    between atoms: _270  and  _273
REMARK  106  A    between atoms: _273  and  _274
REMARK  107  A    between atoms: _274  and  _275
REMARK  108  A    between atoms: _280  and  _282
REMARK  109  A    between atoms: _282  and  _283
REMARK  110  A    between atoms: _282  and  _285
REMARK  111  A    between atoms: _285  and  _286
REMARK  112  A    between atoms: _286  and  _287
REMARK  113  A    between atoms: _287  and  _288
REMARK  114  A    between atoms: _297  and  _299
REMARK  115  A    between atoms: _299  and  _300
REMARK  116  A    between atoms: _299  and  _302
REMARK  117  A    between atoms: _302  and  _303
REMARK  118  A    between atoms: _303  and  _304
REMARK  119  A    between atoms: _307  and  _309
REMARK  120  A    between atoms: _309  and  _310
REMARK  121  A    between atoms: _309  and  _312
REMARK  122  A    between atoms: _312  and  _313
REMARK  123  A    between atoms: _316  and  _318
REMARK  124  A    between atoms: _318  and  _319
REMARK  125  A    between atoms: _318  and  _321
REMARK  126  A    between atoms: _321  and  _322
REMARK  127  A    between atoms: _327  and  _328
REMARK  128  A    between atoms: _330  and  _332
REMARK  129  A    between atoms: _332  and  _333
REMARK  130  A    between atoms: _332  and  _335
REMARK  131  A    between atoms: _335  and  _336
REMARK  132  A    between atoms: _336  and  _337
REMARK  133  A    between atoms: _337  and  _338
REMARK  134  A    between atoms: _338  and  _339
REMARK  135  A    between atoms: _343  and  _345
REMARK  136  A    between atoms: _345  and  _346
REMARK  137  A    between atoms: _345  and  _348
REMARK  138  A    between atoms: _348  and  _349
REMARK  139  A    between atoms: _349  and  _350
REMARK  140  A    between atoms: _353  and  _355
REMARK  141  A    between atoms: _355  and  _356
REMARK  142  A    between atoms: _355  and  _358
REMARK  143  A    between atoms: _358  and  _359
REMARK  144  A    between atoms: _365  and  _367
REMARK  145  A    between atoms: _367  and  _368
REMARK  146  A    between atoms: _367  and  _370
REMARK  147  A    between atoms: _370  and  _371
REMARK  148  A    between atoms: _376  and  _378
REMARK  149  A    between atoms: _378  and  _379
REMARK  150  A    between atoms: _378  and  _381
REMARK  151  A    between atoms: _381  and  _382
REMARK  152  A    between atoms: _387  and  _389
REMARK  153  A    between atoms: _389  and  _390
REMARK  154  A    between atoms: _389  and  _392
REMARK  155  A    between atoms: _392  and  _393
REMARK  156  A    between atoms: _403  and  _405
REMARK  157  A    between atoms: _405  and  _406
REMARK  158  A    between atoms: _405  and  _408
REMARK  159  A    between atoms: _408  and  _409
REMARK  160  A    between atoms: _409  and  _410
REMARK  161  A    between atoms: _415  and  _417
REMARK  162  A    between atoms: _417  and  _418
REMARK  163  A    between atoms: _417  and  _420
REMARK  164  A    between atoms: _420  and  _421
REMARK  165  A    between atoms: _426  and  _428
REMARK  166  A    between atoms: _428  and  _429
REMARK  167  A    between atoms: _428  and  _431
REMARK  168  A    between atoms: _431  and  _432
REMARK  169  A    between atoms: _435  and  _437
REMARK  170  A    between atoms: _437  and  _438
REMARK  171  A    between atoms: _437  and  _440
REMARK  172  A    between atoms: _440  and  _441
REMARK  173  A    between atoms: _444  and  _446
REMARK  174  A    between atoms: _446  and  _447
REMARK  175  A    between atoms: _449  and  _451
REMARK  176  A    between atoms: _451  and  _452
REMARK  177  A    between atoms: _451  and  _454
REMARK  178  A    between atoms: _454  and  _455
REMARK  179  A    between atoms: _455  and  _456
REMARK                            x       y       z     vdW  Elec       q    Type
REMARK                         _______ _______ _______ _____ _____    ______ ____
ROOT
ATOM      1  O   HOH     1      10.825  51.603  84.579  0.00  0.00    +0.000 OA
ENDROOT
TORSDOF 0
REMARK  Name = ../refined-set-2016/3qfz/3qfz_pocket.pdb
REMARK  179 active torsions:
REMARK  status: ('A' for Active; 'I' for Inactive)
REMARK    1  A    between atoms: _1  and  _3
REMARK    2  A    between atoms: _3  and  _4
REMARK    3  A    between atoms: _3  and  _6
REMARK    4  A    between atoms: _6  and  _7
REMARK    5  A    between atoms: _9  and  _11
REMARK    6  A    between atoms: _11  and  _12
REMARK    7  A    between atoms: _11  and  _14
REMARK    8  A    between atoms: _14  and  _15
REMARK    9  A    between atoms: _15  and  _16
REMARK   10  A    between atoms: _16  and  _17
REMARK   11  A    between atoms: _26  and  _28
REMARK   12  A    between atoms: _28  and  _29
REMARK   13  A    between atoms: _28  and  _31
REMARK   14  A    between atoms: _31  and  _32
REMARK   15  A    between atoms: _34  and  _36
REMARK   16  A    between atoms: _36  and  _37
REMARK   17  A    between atoms: _36  and  _39
REMARK   18  A    between atoms: _39  and  _40
REMARK   19  A    between atoms: _40  and  _41
REMARK   20  A    between atoms: _44  and  _46
REMARK   21  A    between atoms: _46  and  _47
REMARK   22  A    between atoms: _46  and  _49
REMARK   23  A    between atoms: _49  and  _50
REMARK   24  A    between atoms: _50  and  _51
REMARK   25  A    between atoms: _51  and  _52
REMARK   26  A    between atoms: _61  and  _63
REMARK   27  A    between atoms: _63  and  _64
REMARK   28  A    between atoms: _66  and  _68
REMARK   29  A    between atoms: _68  and  _69
REMARK   30  A    between atoms: _68  and  _71
REMARK   31  A    between atoms: _71  and  _72
REMARK   32  A    between atoms: _78  and  _80
REMARK   33  A    between atoms: _80  and  _81
REMARK   34  A    between atoms: _80  and  _83
REMARK   35  A    between atoms: _84  and  _85
REMARK   36  A    between atoms: _85  and  _86
REMARK   37  A    between atoms: _95  and  _97
REMARK   38  A    between atoms: _97  and  _98
REMARK   39  A    between atoms: _97  and  _100
REMARK   40  A    between atoms: _100  and  _101
REMARK   41  A    between atoms: _104  and  _106
REMARK   42  A    between atoms: _106  and  _107
REMARK   43  A    between atoms: _106  and  _109
REMARK   44  A    between atoms: _109  and  _110
REMARK   45  A    between atoms: _112  and  _114
REMARK   46  A    between atoms: _114  and  _115
REMARK   47  A    between atoms: _114  and  _117
REMARK   48  A    between atoms: _117  and  _118
REMARK   49  A    between atoms: _118  and  _119
REMARK   50  A    between atoms: _124  and  _126
REMARK   51  A    between atoms: _126  and  _127
REMARK   52  A    between atoms: _126  and  _129
REMARK   53  A    between atoms: _129  and  _130
REMARK   54  A    between atoms: _135  and  _137
REMARK   55  A    between atoms: _137  and  _138
REMARK   56  A    between atoms: _137  and  _140
REMARK   57  A    between atoms: _140  and  _141
REMARK   58  A    between atoms: _144  and  _146
REMARK   59  A    between atoms: _146  and  _147
REMARK   60  A    between atoms: _146  and  _149
REMARK   61  A    between atoms: _149  and  _150
REMARK   62  A    between atoms: _156  and  _158
REMARK   63  A    between atoms: _158  and  _159
REMARK   64  A    between atoms: _158  and  _161
REMARK   65  A    between atoms: _161  and  _162
REMARK   66  A    between atoms: _165  and  _167
REMARK   67  A    between atoms: _167  and  _168
REMARK   68  A    between atoms: _167  and  _170
REMARK   69  A    between atoms: _170  and  _171
REMARK   70  A    between atoms: _174  and  _176
REMARK   71  A    between atoms: _176  and  _177
REMARK   72  A    between atoms: _176  and  _179
REMARK   73  A    between atoms: _179  and  _180
REMARK   74  A    between atoms: _190  and  _192
REMARK   75  A    between atoms: _192  and  _193
REMARK   76  A    between atoms: _196  and  _198
REMARK   77  A    between atoms: _198  and  _199
REMARK   78  A    between atoms: _198  and  _201
REMARK   79  A    between atoms: _201  and  _202
REMARK   80  A    between atoms: _205  and  _207
REMARK   81  A    between atoms: _207  and  _208
REMARK   82  A    between atoms: _207  and  _210
REMARK   83  A    between atoms: _210  and  _211
REMARK   84  A    between atoms: _221  and  _223
REMARK   85  A    between atoms: _223  and  _224
REMARK   86  A    between atoms: _223  and  _226
REMARK   87  A    between atoms: _226  and  _227
REMARK   88  A    between atoms: _232  and  _234
REMARK   89  A    between atoms: _234  and  _235
REMARK   90  A    between atoms: _234  and  _237
REMARK   91  A    between atoms: _237  and  _238
REMARK   92  A    between atoms: _241  and  _243
REMARK   93  A    between atoms: _243  and  _244
REMARK   94  A    between atoms: _243  and  _246
REMARK   95  A    between atoms: _248  and  _250
REMARK   96  A    between atoms: _250  and  _251
REMARK   97  A    between atoms: _250  and  _253
REMARK   98  A    between atoms: _253  and  _254
REMARK   99  A    between atoms: _257  and  _259
REMARK  100  A    between atoms: _259  and  _260
REMARK  101  A    between atoms: _259  and  _262
REMARK  102  A    between atoms: _262  and  _263
REMARK  103  A    between atoms: _268  and  _270
REMARK  104  A    between atoms: _270  and  _271
REMARK  105  A    between atoms: _270  and  _273
REMARK  106  A    between atoms: _273  and  _274
REMARK  107  A    between atoms: _274  and  _275
REMARK  108  A    between atoms: _280  and  _282
REMARK  109  A    between atoms: _282  and  _283
REMARK  110  A    between atoms: _282  and  _285
REMARK  111  A    between atoms: _285  and  _286
REMARK  112  A    between atoms: _286  and  _287
REMARK  113  A    between atoms: _287  and  _288
REMARK  114  A    between atoms: _297  and  _299
REMARK  115  A    between atoms: _299  and  _300
REMARK  116  A    between atoms: _299  and  _302
REMARK  117  A    between atoms: _302  and  _303
REMARK  118  A    between atoms: _303  and  _304
REMARK  119  A    between atoms: _307  and  _309
REMARK  120  A    between atoms: _309  and  _310
REMARK  121  A    between atoms: _309  and  _312
REMARK  122  A    between atoms: _312  and  _313
REMARK  123  A    between atoms: _316  and  _318
REMARK  124  A    between atoms: _318  and  _319
REMARK  125  A    between atoms: _318  and  _321
REMARK  126  A    between atoms: _321  and  _322
REMARK  127  A    between atoms: _327  and  _328
REMARK  128  A    between atoms: _330  and  _332
REMARK  129  A    between atoms: _332  and  _333
REMARK  130  A    between atoms: _332  and  _335
REMARK  131  A    between atoms: _335  and  _336
REMARK  132  A    between atoms: _336  and  _337
REMARK  133  A    between atoms: _337  and  _338
REMARK  134  A    between atoms: _338  and  _339
REMARK  135  A    between atoms: _343  and  _345
REMARK  136  A    between atoms: _345  and  _346
REMARK  137  A    between atoms: _345  and  _348
REMARK  138  A    between atoms: _348  and  _349
REMARK  139  A    between atoms: _349  and  _350
REMARK  140  A    between atoms: _353  and  _355
REMARK  141  A    between atoms: _355  and  _356
REMARK  142  A    between atoms: _355  and  _358
REMARK  143  A    between atoms: _358  and  _359
REMARK  144  A    between atoms: _365  and  _367
REMARK  145  A    between atoms: _367  and  _368
REMARK  146  A    between atoms: _367  and  _370
REMARK  147  A    between atoms: _370  and  _371
REMARK  148  A    between atoms: _376  and  _378
REMARK  149  A    between atoms: _378  and  _379
REMARK  150  A    between atoms: _378  and  _381
REMARK  151  A    between atoms: _381  and  _382
REMARK  152  A    between atoms: _387  and  _389
REMARK  153  A    between atoms: _389  and  _390
REMARK  154  A    between atoms: _389  and  _392
REMARK  155  A    between atoms: _392  and  _393
REMARK  156  A    between atoms: _403  and  _405
REMARK  157  A    between atoms: _405  and  _406
REMARK  158  A    between atoms: _405  and  _408
REMARK  159  A    between atoms: _408  and  _409
REMARK  160  A    between atoms: _409  and  _410
REMARK  161  A    between atoms: _415  and  _417
REMARK  162  A    between atoms: _417  and  _418
REMARK  163  A    between atoms: _417  and  _420
REMARK  164  A    between atoms: _420  and  _421
REMARK  165  A    between atoms: _426  and  _428
REMARK  166  A    between atoms: _428  and  _429
REMARK  167  A    between atoms: _428  and  _431
REMARK  168  A    between atoms: _431  and  _432
REMARK  169  A    between atoms: _435  and  _437
REMARK  170  A    between atoms: _437  and  _438
REMARK  171  A    between atoms: _437  and  _440
REMARK  172  A    between atoms: _440  and  _441
REMARK  173  A    between atoms: _444  and  _446
REMARK  174  A    between atoms: _446  and  _447
REMARK  175  A    between atoms: _449  and  _451
REMARK  176  A    between atoms: _451  and  _452
REMARK  177  A    between atoms: _451  and  _454
REMARK  178  A    between atoms: _454  and  _455
REMARK  179  A    between atoms: _455  and  _456
REMARK                            x       y       z     vdW  Elec       q    Type
REMARK                         _______ _______ _______ _____ _____    ______ ____
ROOT
ATOM      1  O   HOH     1       9.347  47.199  86.905  0.00  0.00    +0.000 OA
ENDROOT
TORSDOF 0
REMARK  Name = ../refined-set-2016/3qfz/3qfz_pocket.pdb
REMARK  179 active torsions:
REMARK  status: ('A' for Active; 'I' for Inactive)
REMARK    1  A    between atoms: _1  and  _3
REMARK    2  A    between atoms: _3  and  _4
REMARK    3  A    between atoms: _3  and  _6
REMARK    4  A    between atoms: _6  and  _7
REMARK    5  A    between atoms: _9  and  _11
REMARK    6  A    between atoms: _11  and  _12
REMARK    7  A    between atoms: _11  and  _14
REMARK    8  A    between atoms: _14  and  _15
REMARK    9  A    between atoms: _15  and  _16
REMARK   10  A    between atoms: _16  and  _17
REMARK   11  A    between atoms: _26  and  _28
REMARK   12  A    between atoms: _28  and  _29
REMARK   13  A    between atoms: _28  and  _31
REMARK   14  A    between atoms: _31  and  _32
REMARK   15  A    between atoms: _34  and  _36
REMARK   16  A    between atoms: _36  and  _37
REMARK   17  A    between atoms: _36  and  _39
REMARK   18  A    between atoms: _39  and  _40
REMARK   19  A    between atoms: _40  and  _41
REMARK   20  A    between atoms: _44  and  _46
REMARK   21  A    between atoms: _46  and  _47
REMARK   22  A    between atoms: _46  and  _49
REMARK   23  A    between atoms: _49  and  _50
REMARK   24  A    between atoms: _50  and  _51
REMARK   25  A    between atoms: _51  and  _52
REMARK   26  A    between atoms: _61  and  _63
REMARK   27  A    between atoms: _63  and  _64
REMARK   28  A    between atoms: _66  and  _68
REMARK   29  A    between atoms: _68  and  _69
REMARK   30  A    between atoms: _68  and  _71
REMARK   31  A    between atoms: _71  and  _72
REMARK   32  A    between atoms: _78  and  _80
REMARK   33  A    between atoms: _80  and  _81
REMARK   34  A    between atoms: _80  and  _83
REMARK   35  A    between atoms: _84  and  _85
REMARK   36  A    between atoms: _85  and  _86
REMARK   37  A    between atoms: _95  and  _97
REMARK   38  A    between atoms: _97  and  _98
REMARK   39  A    between atoms: _97  and  _100
REMARK   40  A    between atoms: _100  and  _101
REMARK   41  A    between atoms: _104  and  _106
REMARK   42  A    between atoms: _106  and  _107
REMARK   43  A    between atoms: _106  and  _109
REMARK   44  A    between atoms: _109  and  _110
REMARK   45  A    between atoms: _112  and  _114
REMARK   46  A    between atoms: _114  and  _115
REMARK   47  A    between atoms: _114  and  _117
REMARK   48  A    between atoms: _117  and  _118
REMARK   49  A    between atoms: _118  and  _119
REMARK   50  A    between atoms: _124  and  _126
REMARK   51  A    between atoms: _126  and  _127
REMARK   52  A    between atoms: _126  and  _129
REMARK   53  A    between atoms: _129  and  _130
REMARK   54  A    between atoms: _135  and  _137
REMARK   55  A    between atoms: _137  and  _138
REMARK   56  A    between atoms: _137  and  _140
REMARK   57  A    between atoms: _140  and  _141
REMARK   58  A    between atoms: _144  and  _146
REMARK   59  A    between atoms: _146  and  _147
REMARK   60  A    between atoms: _146  and  _149
REMARK   61  A    between atoms: _149  and  _150
REMARK   62  A    between atoms: _156  and  _158
REMARK   63  A    between atoms: _158  and  _159
REMARK   64  A    between atoms: _158  and  _161
REMARK   65  A    between atoms: _161  and  _162
REMARK   66  A    between atoms: _165  and  _167
REMARK   67  A    between atoms: _167  and  _168
REMARK   68  A    between atoms: _167  and  _170
REMARK   69  A    between atoms: _170  and  _171
REMARK   70  A    between atoms: _174  and  _176
REMARK   71  A    between atoms: _176  and  _177
REMARK   72  A    between atoms: _176  and  _179
REMARK   73  A    between atoms: _179  and  _180
REMARK   74  A    between atoms: _190  and  _192
REMARK   75  A    between atoms: _192  and  _193
REMARK   76  A    between atoms: _196  and  _198
REMARK   77  A    between atoms: _198  and  _199
REMARK   78  A    between atoms: _198  and  _201
REMARK   79  A    between atoms: _201  and  _202
REMARK   80  A    between atoms: _205  and  _207
REMARK   81  A    between atoms: _207  and  _208
REMARK   82  A    between atoms: _207  and  _210
REMARK   83  A    between atoms: _210  and  _211
REMARK   84  A    between atoms: _221  and  _223
REMARK   85  A    between atoms: _223  and  _224
REMARK   86  A    between atoms: _223  and  _226
REMARK   87  A    between atoms: _226  and  _227
REMARK   88  A    between atoms: _232  and  _234
REMARK   89  A    between atoms: _234  and  _235
REMARK   90  A    between atoms: _234  and  _237
REMARK   91  A    between atoms: _237  and  _238
REMARK   92  A    between atoms: _241  and  _243
REMARK   93  A    between atoms: _243  and  _244
REMARK   94  A    between atoms: _243  and  _246
REMARK   95  A    between atoms: _248  and  _250
REMARK   96  A    between atoms: _250  and  _251
REMARK   97  A    between atoms: _250  and  _253
REMARK   98  A    between atoms: _253  and  _254
REMARK   99  A    between atoms: _257  and  _259
REMARK  100  A    between atoms: _259  and  _260
REMARK  101  A    between atoms: _259  and  _262
REMARK  102  A    between atoms: _262  and  _263
REMARK  103  A    between atoms: _268  and  _270
REMARK  104  A    between atoms: _270  and  _271
REMARK  105  A    between atoms: _270  and  _273
REMARK  106  A    between atoms: _273  and  _274
REMARK  107  A    between atoms: _274  and  _275
REMARK  108  A    between atoms: _280  and  _282
REMARK  109  A    between atoms: _282  and  _283
REMARK  110  A    between atoms: _282  and  _285
REMARK  111  A    between atoms: _285  and  _286
REMARK  112  A    between atoms: _286  and  _287
REMARK  113  A    between atoms: _287  and  _288
REMARK  114  A    between atoms: _297  and  _299
REMARK  115  A    between atoms: _299  and  _300
REMARK  116  A    between atoms: _299  and  _302
REMARK  117  A    between atoms: _302  and  _303
REMARK  118  A    between atoms: _303  and  _304
REMARK  119  A    between atoms: _307  and  _309
REMARK  120  A    between atoms: _309  and  _310
REMARK  121  A    between atoms: _309  and  _312
REMARK  122  A    between atoms: _312  and  _313
REMARK  123  A    between atoms: _316  and  _318
REMARK  124  A    between atoms: _318  and  _319
REMARK  125  A    between atoms: _318  and  _321
REMARK  126  A    between atoms: _321  and  _322
REMARK  127  A    between atoms: _327  and  _328
REMARK  128  A    between atoms: _330  and  _332
REMARK  129  A    between atoms: _332  and  _333
REMARK  130  A    between atoms: _332  and  _335
REMARK  131  A    between atoms: _335  and  _336
REMARK  132  A    between atoms: _336  and  _337
REMARK  133  A    between atoms: _337  and  _338
REMARK  134  A    between atoms: _338  and  _339
REMARK  135  A    between atoms: _343  and  _345
REMARK  136  A    between atoms: _345  and  _346
REMARK  137  A    between atoms: _345  and  _348
REMARK  138  A    between atoms: _348  and  _349
REMARK  139  A    between atoms: _349  and  _350
REMARK  140  A    between atoms: _353  and  _355
REMARK  141  A    between atoms: _355  and  _356
REMARK  142  A    between atoms: _355  and  _358
REMARK  143  A    between atoms: _358  and  _359
REMARK  144  A    between atoms: _365  and  _367
REMARK  145  A    between atoms: _367  and  _368
REMARK  146  A    between atoms: _367  and  _370
REMARK  147  A    between atoms: _370  and  _371
REMARK  148  A    between atoms: _376  and  _378
REMARK  149  A    between atoms: _378  and  _379
REMARK  150  A    between atoms: _378  and  _381
REMARK  151  A    between atoms: _381  and  _382
REMARK  152  A    between atoms: _387  and  _389
REMARK  153  A    between atoms: _389  and  _390
REMARK  154  A    between atoms: _389  and  _392
REMARK  155  A    between atoms: _392  and  _393
REMARK  156  A    between atoms: _403  and  _405
REMARK  157  A    between atoms: _405  and  _406
REMARK  158  A    between atoms: _405  and  _408
REMARK  159  A    between atoms: _408  and  _409
REMARK  160  A    between atoms: _409  and  _410
REMARK  161  A    between atoms: _415  and  _417
REMARK  162  A    between atoms: _417  and  _418
REMARK  163  A    between atoms: _417  and  _420
REMARK  164  A    between atoms: _420  and  _421
REMARK  165  A    between atoms: _426  and  _428
REMARK  166  A    between atoms: _428  and  _429
REMARK  167  A    between atoms: _428  and  _431
REMARK  168  A    between atoms: _431  and  _432
REMARK  169  A    between atoms: _435  and  _437
REMARK  170  A    between atoms: _437  and  _438
REMARK  171  A    between atoms: _437  and  _440
REMARK  172  A    between atoms: _440  and  _441
REMARK  173  A    between atoms: _444  and  _446
REMARK  174  A    between atoms: _446  and  _447
REMARK  175  A    between atoms: _449  and  _451
REMARK  176  A    between atoms: _451  and  _452
REMARK  177  A    between atoms: _451  and  _454
REMARK  178  A    between atoms: _454  and  _455
REMARK  179  A    between atoms: _455  and  _456
REMARK                            x       y       z     vdW  Elec       q    Type
REMARK                         _______ _______ _______ _____ _____    ______ ____
ROOT
ATOM      1  O   HOH     1      16.147  44.978  84.095  0.00  0.00    +0.000 OA
ENDROOT
TORSDOF 0
REMARK  Name = ../refined-set-2016/3qfz/3qfz_pocket.pdb
REMARK  179 active torsions:
REMARK  status: ('A' for Active; 'I' for Inactive)
REMARK    1  A    between atoms: _1  and  _3
REMARK    2  A    between atoms: _3  and  _4
REMARK    3  A    between atoms: _3  and  _6
REMARK    4  A    between atoms: _6  and  _7
REMARK    5  A    between atoms: _9  and  _11
REMARK    6  A    between atoms: _11  and  _12
REMARK    7  A    between atoms: _11  and  _14
REMARK    8  A    between atoms: _14  and  _15
REMARK    9  A    between atoms: _15  and  _16
REMARK   10  A    between atoms: _16  and  _17
REMARK   11  A    between atoms: _26  and  _28
REMARK   12  A    between atoms: _28  and  _29
REMARK   13  A    between atoms: _28  and  _31
REMARK   14  A    between atoms: _31  and  _32
REMARK   15  A    between atoms: _34  and  _36
REMARK   16  A    between atoms: _36  and  _37
REMARK   17  A    between atoms: _36  and  _39
REMARK   18  A    between atoms: _39  and  _40
REMARK   19  A    between atoms: _40  and  _41
REMARK   20  A    between atoms: _44  and  _46
REMARK   21  A    between atoms: _46  and  _47
REMARK   22  A    between atoms: _46  and  _49
REMARK   23  A    between atoms: _49  and  _50
REMARK   24  A    between atoms: _50  and  _51
REMARK   25  A    between atoms: _51  and  _52
REMARK   26  A    between atoms: _61  and  _63
REMARK   27  A    between atoms: _63  and  _64
REMARK   28  A    between atoms: _66  and  _68
REMARK   29  A    between atoms: _68  and  _69
REMARK   30  A    between atoms: _68  and  _71
REMARK   31  A    between atoms: _71  and  _72
REMARK   32  A    between atoms: _78  and  _80
REMARK   33  A    between atoms: _80  and  _81
REMARK   34  A    between atoms: _80  and  _83
REMARK   35  A    between atoms: _84  and  _85
REMARK   36  A    between atoms: _85  and  _86
REMARK   37  A    between atoms: _95  and  _97
REMARK   38  A    between atoms: _97  and  _98
REMARK   39  A    between atoms: _97  and  _100
REMARK   40  A    between atoms: _100  and  _101
REMARK   41  A    between atoms: _104  and  _106
REMARK   42  A    between atoms: _106  and  _107
REMARK   43  A    between atoms: _106  and  _109
REMARK   44  A    between atoms: _109  and  _110
REMARK   45  A    between atoms: _112  and  _114
REMARK   46  A    between atoms: _114  and  _115
REMARK   47  A    between atoms: _114  and  _117
REMARK   48  A    between atoms: _117  and  _118
REMARK   49  A    between atoms: _118  and  _119
REMARK   50  A    between atoms: _124  and  _126
REMARK   51  A    between atoms: _126  and  _127
REMARK   52  A    between atoms: _126  and  _129
REMARK   53  A    between atoms: _129  and  _130
REMARK   54  A    between atoms: _135  and  _137
REMARK   55  A    between atoms: _137  and  _138
REMARK   56  A    between atoms: _137  and  _140
REMARK   57  A    between atoms: _140  and  _141
REMARK   58  A    between atoms: _144  and  _146
REMARK   59  A    between atoms: _146  and  _147
REMARK   60  A    between atoms: _146  and  _149
REMARK   61  A    between atoms: _149  and  _150
REMARK   62  A    between atoms: _156  and  _158
REMARK   63  A    between atoms: _158  and  _159
REMARK   64  A    between atoms: _158  and  _161
REMARK   65  A    between atoms: _161  and  _162
REMARK   66  A    between atoms: _165  and  _167
REMARK   67  A    between atoms: _167  and  _168
REMARK   68  A    between atoms: _167  and  _170
REMARK   69  A    between atoms: _170  and  _171
REMARK   70  A    between atoms: _174  and  _176
REMARK   71  A    between atoms: _176  and  _177
REMARK   72  A    between atoms: _176  and  _179
REMARK   73  A    between atoms: _179  and  _180
REMARK   74  A    between atoms: _190  and  _192
REMARK   75  A    between atoms: _192  and  _193
REMARK   76  A    between atoms: _196  and  _198
REMARK   77  A    between atoms: _198  and  _199
REMARK   78  A    between atoms: _198  and  _201
REMARK   79  A    between atoms: _201  and  _202
REMARK   80  A    between atoms: _205  and  _207
REMARK   81  A    between atoms: _207  and  _208
REMARK   82  A    between atoms: _207  and  _210
REMARK   83  A    between atoms: _210  and  _211
REMARK   84  A    between atoms: _221  and  _223
REMARK   85  A    between atoms: _223  and  _224
REMARK   86  A    between atoms: _223  and  _226
REMARK   87  A    between atoms: _226  and  _227
REMARK   88  A    between atoms: _232  and  _234
REMARK   89  A    between atoms: _234  and  _235
REMARK   90  A    between atoms: _234  and  _237
REMARK   91  A    between atoms: _237  and  _238
REMARK   92  A    between atoms: _241  and  _243
REMARK   93  A    between atoms: _243  and  _244
REMARK   94  A    between atoms: _243  and  _246
REMARK   95  A    between atoms: _248  and  _250
REMARK   96  A    between atoms: _250  and  _251
REMARK   97  A    between atoms: _250  and  _253
REMARK   98  A    between atoms: _253  and  _254
REMARK   99  A    between atoms: _257  and  _259
REMARK  100  A    between atoms: _259  and  _260
REMARK  101  A    between atoms: _259  and  _262
REMARK  102  A    between atoms: _262  and  _263
REMARK  103  A    between atoms: _268  and  _270
REMARK  104  A    between atoms: _270  and  _271
REMARK  105  A    between atoms: _270  and  _273
REMARK  106  A    between atoms: _273  and  _274
REMARK  107  A    between atoms: _274  and  _275
REMARK  108  A    between atoms: _280  and  _282
REMARK  109  A    between atoms: _282  and  _283
REMARK  110  A    between atoms: _282  and  _285
REMARK  111  A    between atoms: _285  and  _286
REMARK  112  A    between atoms: _286  and  _287
REMARK  113  A    between atoms: _287  and  _288
REMARK  114  A    between atoms: _297  and  _299
REMARK  115  A    between atoms: _299  and  _300
REMARK  116  A    between atoms: _299  and  _302
REMARK  117  A    between atoms: _302  and  _303
REMARK  118  A    between atoms: _303  and  _304
REMARK  119  A    between atoms: _307  and  _309
REMARK  120  A    between atoms: _309  and  _310
REMARK  121  A    between atoms: _309  and  _312
REMARK  122  A    between atoms: _312  and  _313
REMARK  123  A    between atoms: _316  and  _318
REMARK  124  A    between atoms: _318  and  _319
REMARK  125  A    between atoms: _318  and  _321
REMARK  126  A    between atoms: _321  and  _322
REMARK  127  A    between atoms: _327  and  _328
REMARK  128  A    between atoms: _330  and  _332
REMARK  129  A    between atoms: _332  and  _333
REMARK  130  A    between atoms: _332  and  _335
REMARK  131  A    between atoms: _335  and  _336
REMARK  132  A    between atoms: _336  and  _337
REMARK  133  A    between atoms: _337  and  _338
REMARK  134  A    between atoms: _338  and  _339
REMARK  135  A    between atoms: _343  and  _345
REMARK  136  A    between atoms: _345  and  _346
REMARK  137  A    between atoms: _345  and  _348
REMARK  138  A    between atoms: _348  and  _349
REMARK  139  A    between atoms: _349  and  _350
REMARK  140  A    between atoms: _353  and  _355
REMARK  141  A    between atoms: _355  and  _356
REMARK  142  A    between atoms: _355  and  _358
REMARK  143  A    between atoms: _358  and  _359
REMARK  144  A    between atoms: _365  and  _367
REMARK  145  A    between atoms: _367  and  _368
REMARK  146  A    between atoms: _367  and  _370
REMARK  147  A    between atoms: _370  and  _371
REMARK  148  A    between atoms: _376  and  _378
REMARK  149  A    between atoms: _378  and  _379
REMARK  150  A    between atoms: _378  and  _381
REMARK  151  A    between atoms: _381  and  _382
REMARK  152  A    between atoms: _387  and  _389
REMARK  153  A    between atoms: _389  and  _390
REMARK  154  A    between atoms: _389  and  _392
REMARK  155  A    between atoms: _392  and  _393
REMARK  156  A    between atoms: _403  and  _405
REMARK  157  A    between atoms: _405  and  _406
REMARK  158  A    between atoms: _405  and  _408
REMARK  159  A    between atoms: _408  and  _409
REMARK  160  A    between atoms: _409  and  _410
REMARK  161  A    between atoms: _415  and  _417
REMARK  162  A    between atoms: _417  and  _418
REMARK  163  A    between atoms: _417  and  _420
REMARK  164  A    between atoms: _420  and  _421
REMARK  165  A    between atoms: _426  and  _428
REMARK  166  A    between atoms: _428  and  _429
REMARK  167  A    between atoms: _428  and  _431
REMARK  168  A    between atoms: _431  and  _432
REMARK  169  A    between atoms: _435  and  _437
REMARK  170  A    between atoms: _437  and  _438
REMARK  171  A    between atoms: _437  and  _440
REMARK  172  A    between atoms: _440  and  _441
REMARK  173  A    between atoms: _444  and  _446
REMARK  174  A    between atoms: _446  and  _447
REMARK  175  A    between atoms: _449  and  _451
REMARK  176  A    between atoms: _451  and  _452
REMARK  177  A    between atoms: _451  and  _454
REMARK  178  A    between atoms: _454  and  _455
REMARK  179  A    between atoms: _455  and  _456
REMARK                            x       y       z     vdW  Elec       q    Type
REMARK                         _______ _______ _______ _____ _____    ______ ____
ROOT
ATOM      1  O   HOH     1       8.915  45.775  79.618  0.00  0.00    +0.000 OA
ENDROOT
TORSDOF 0
