REMARK  Name = ../refined-set-2016/2weo/2weo_pocket.pdb
REMARK  143 active torsions:
REMARK  status: ('A' for Active; 'I' for Inactive)
REMARK    1  A    between atoms: _1  and  _3
REMARK    2  A    between atoms: _3  and  _4
REMARK    3  A    between atoms: _3  and  _6
REMARK    4  A    between atoms: _6  and  _7
REMARK    5  A    between atoms: _17  and  _19
REMARK    6  A    between atoms: _19  and  _20
REMARK    7  A    between atoms: _19  and  _22
REMARK    8  A    between atoms: _22  and  _23
REMARK    9  A    between atoms: _28  and  _29
REMARK   10  A    between atoms: _31  and  _33
REMARK   11  A    between atoms: _33  and  _34
REMARK   12  A    between atoms: _33  and  _36
REMARK   13  A    between atoms: _36  and  _37
REMARK   14  A    between atoms: _40  and  _41
REMARK   15  A    between atoms: _46  and  _48
REMARK   16  A    between atoms: _48  and  _49
REMARK   17  A    between atoms: _48  and  _51
REMARK   18  A    between atoms: _51  and  _52
REMARK   19  A    between atoms: _57  and  _59
REMARK   20  A    between atoms: _59  and  _60
REMARK   21  A    between atoms: _63  and  _65
REMARK   22  A    between atoms: _65  and  _66
REMARK   23  A    between atoms: _65  and  _68
REMARK   24  A    between atoms: _68  and  _69
REMARK   25  A    between atoms: _74  and  _76
REMARK   26  A    between atoms: _76  and  _77
REMARK   27  A    between atoms: _76  and  _79
REMARK   28  A    between atoms: _79  and  _80
REMARK   29  A    between atoms: _83  and  _85
REMARK   30  A    between atoms: _85  and  _86
REMARK   31  A    between atoms: _85  and  _88
REMARK   32  A    between atoms: _88  and  _89
REMARK   33  A    between atoms: _89  and  _90
REMARK   34  A    between atoms: _95  and  _97
REMARK   35  A    between atoms: _97  and  _98
REMARK   36  A    between atoms: _97  and  _100
REMARK   37  A    between atoms: _100  and  _101
REMARK   38  A    between atoms: _107  and  _109
REMARK   39  A    between atoms: _120  and  _123
REMARK   40  A    between atoms: _123  and  _124
REMARK   41  A    between atoms: _132  and  _133
REMARK   42  A    between atoms: _141  and  _143
REMARK   43  A    between atoms: _143  and  _144
REMARK   44  A    between atoms: _143  and  _146
REMARK   45  A    between atoms: _146  and  _147
REMARK   46  A    between atoms: _147  and  _148
REMARK   47  A    between atoms: _151  and  _153
REMARK   48  A    between atoms: _153  and  _154
REMARK   49  A    between atoms: _153  and  _156
REMARK   50  A    between atoms: _156  and  _157
REMARK   51  A    between atoms: _162  and  _164
REMARK   52  A    between atoms: _164  and  _165
REMARK   53  A    between atoms: _164  and  _167
REMARK   54  A    between atoms: _167  and  _168
REMARK   55  A    between atoms: _168  and  _169
REMARK   56  A    between atoms: _172  and  _174
REMARK   57  A    between atoms: _174  and  _175
REMARK   58  A    between atoms: _174  and  _177
REMARK   59  A    between atoms: _177  and  _178
REMARK   60  A    between atoms: _181  and  _183
REMARK   61  A    between atoms: _183  and  _184
REMARK   62  A    between atoms: _183  and  _186
REMARK   63  A    between atoms: _186  and  _187
REMARK   64  A    between atoms: _188  and  ZN_403
REMARK   65  A    between atoms: _192  and  _194
REMARK   66  A    between atoms: _194  and  _195
REMARK   67  A    between atoms: _194  and  _197
REMARK   68  A    between atoms: _197  and  _198
REMARK   69  A    between atoms: _201  and  _203
REMARK   70  A    between atoms: _203  and  _204
REMARK   71  A    between atoms: _203  and  _206
REMARK   72  A    between atoms: _209  and  _211
REMARK   73  A    between atoms: _211  and  _212
REMARK   74  A    between atoms: _211  and  _214
REMARK   75  A    between atoms: _214  and  _215
REMARK   76  A    between atoms: _220  and  _222
REMARK   77  A    between atoms: _222  and  _223
REMARK   78  A    between atoms: _222  and  _225
REMARK   79  A    between atoms: _225  and  _226
REMARK   80  A    between atoms: _232  and  _234
REMARK   81  A    between atoms: _234  and  _235
REMARK   82  A    between atoms: _234  and  _237
REMARK   83  A    between atoms: _240  and  _242
REMARK   84  A    between atoms: _242  and  _243
REMARK   85  A    between atoms: _242  and  _245
REMARK   86  A    between atoms: _245  and  _246
REMARK   87  A    between atoms: _249  and  _251
REMARK   88  A    between atoms: _251  and  _252
REMARK   89  A    between atoms: _255  and  _257
REMARK   90  A    between atoms: _257  and  _258
REMARK   91  A    between atoms: _257  and  _260
REMARK   92  A    between atoms: _263  and  _265
REMARK   93  A    between atoms: _265  and  _266
REMARK   94  A    between atoms: _265  and  _268
REMARK   95  A    between atoms: _268  and  _269
REMARK   96  A    between atoms: _272  and  _274
REMARK   97  A    between atoms: _274  and  _275
REMARK   98  A    between atoms: _277  and  _279
REMARK   99  A    between atoms: _279  and  _280
REMARK  100  A    between atoms: _279  and  _282
REMARK  101  A    between atoms: _282  and  _283
REMARK  102  A    between atoms: _285  and  _287
REMARK  103  A    between atoms: _287  and  _288
REMARK  104  A    between atoms: _287  and  _290
REMARK  105  A    between atoms: _290  and  _291
REMARK  106  A    between atoms: _294  and  _296
REMARK  107  A    between atoms: _296  and  _297
REMARK  108  A    between atoms: _296  and  _299
REMARK  109  A    between atoms: _299  and  _300
REMARK  110  A    between atoms: _303  and  _305
REMARK  111  A    between atoms: _305  and  _306
REMARK  112  A    between atoms: _305  and  _308
REMARK  113  A    between atoms: _308  and  _309
REMARK  114  A    between atoms: _313  and  _314
REMARK  115  A    between atoms: _320  and  _321
REMARK  116  A    between atoms: _326  and  _328
REMARK  117  A    between atoms: _328  and  _329
REMARK  118  A    between atoms: _328  and  _331
REMARK  119  A    between atoms: _331  and  _332
REMARK  120  A    between atoms: _335  and  _337
REMARK  121  A    between atoms: _337  and  _338
REMARK  122  A    between atoms: _337  and  _340
REMARK  123  A    between atoms: _340  and  _341
REMARK  124  A    between atoms: _344  and  _346
REMARK  125  A    between atoms: _346  and  _347
REMARK  126  A    between atoms: _346  and  _349
REMARK  127  A    between atoms: _351  and  _353
REMARK  128  A    between atoms: _353  and  _354
REMARK  129  A    between atoms: _353  and  _356
REMARK  130  A    between atoms: _359  and  _361
REMARK  131  A    between atoms: _361  and  _362
REMARK  132  A    between atoms: _361  and  _364
REMARK  133  A    between atoms: _364  and  _365
REMARK  134  A    between atoms: _375  and  _377
REMARK  135  A    between atoms: _377  and  _378
REMARK  136  A    between atoms: _377  and  _380
REMARK  137  A    between atoms: _380  and  _381
REMARK  138  A    between atoms: _386  and  _388
REMARK  139  A    between atoms: _388  and  _389
REMARK  140  A    between atoms: _388  and  _391
REMARK  141  A    between atoms: _391  and  _392
REMARK  142  A    between atoms: _392  and  _393
REMARK  143  A    between atoms: _393  and  _394
REMARK                            x       y       z     vdW  Elec       q    Type
REMARK                         _______ _______ _______ _____ _____    ______ ____
ROOT
ATOM      1  CG  TRP A   1      -5.794  -1.885  12.138  0.00  0.00    -0.002 A 
ATOM      2  CD2 TRP A   1      -4.456  -1.381  12.110  0.00  0.00    +0.013 A 
ATOM      3  CE3 TRP A   1      -3.887  -0.128  12.371  0.00  0.00    +0.001 A 
ATOM      4  CZ3 TRP A   1      -2.492   0.018  12.243  0.00  0.00    +0.000 A 
ATOM      5  CH2 TRP A   1      -1.686  -1.075  11.864  0.00  0.00    +0.001 A 
ATOM      6  CZ2 TRP A   1      -2.227  -2.303  11.606  0.00  0.00    +0.017 A 
ATOM      7  CE2 TRP A   1      -3.619  -2.449  11.729  0.00  0.00    +0.056 A 
ATOM      8  NE1 TRP A   1      -4.420  -3.551  11.535  0.00  0.00    -0.352 N 
ATOM      9  HE1 TRP A   1      -4.092  -4.495  11.246  0.00  0.00    +0.166 HD
ATOM     10  CD1 TRP A   1      -5.723  -3.201  11.785  0.00  0.00    +0.068 A 
ENDROOT
BRANCH   1  11
ATOM     11  CB  TRP A   1      -7.018  -1.106  12.483  0.00  0.00    +0.053 C 
BRANCH  11  12
ATOM     12  CA  TRP A   1      -7.670  -0.393  11.294  0.00  0.00    +0.137 C 
BRANCH  12  13
ATOM     13  N   TRP A   1      -8.339  -1.349  10.441  0.00  0.00    -0.239 NA
ATOM     14  H   TRP A   1      -8.146  -2.364  10.558  0.00  0.00    +0.142 HD
ENDBRANCH  12  13
BRANCH  12  15
ATOM     15  C   TRP A   1      -6.650   0.417  10.514  0.00  0.00    +0.224 C 
ATOM     16  O   TRP A   1      -6.086  -0.048   9.516  0.00  0.00    -0.287 OA
ENDBRANCH  12  15
ENDBRANCH  11  12
ENDBRANCH   1  11
TORSDOF 4
REMARK  Name = ../refined-set-2016/2weo/2weo_pocket.pdb
REMARK  143 active torsions:
REMARK  status: ('A' for Active; 'I' for Inactive)
REMARK    1  A    between atoms: _1  and  _3
REMARK    2  A    between atoms: _3  and  _4
REMARK    3  A    between atoms: _3  and  _6
REMARK    4  A    between atoms: _6  and  _7
REMARK    5  A    between atoms: _17  and  _19
REMARK    6  A    between atoms: _19  and  _20
REMARK    7  A    between atoms: _19  and  _22
REMARK    8  A    between atoms: _22  and  _23
REMARK    9  A    between atoms: _28  and  _29
REMARK   10  A    between atoms: _31  and  _33
REMARK   11  A    between atoms: _33  and  _34
REMARK   12  A    between atoms: _33  and  _36
REMARK   13  A    between atoms: _36  and  _37
REMARK   14  A    between atoms: _40  and  _41
REMARK   15  A    between atoms: _46  and  _48
REMARK   16  A    between atoms: _48  and  _49
REMARK   17  A    between atoms: _48  and  _51
REMARK   18  A    between atoms: _51  and  _52
REMARK   19  A    between atoms: _57  and  _59
REMARK   20  A    between atoms: _59  and  _60
REMARK   21  A    between atoms: _63  and  _65
REMARK   22  A    between atoms: _65  and  _66
REMARK   23  A    between atoms: _65  and  _68
REMARK   24  A    between atoms: _68  and  _69
REMARK   25  A    between atoms: _74  and  _76
REMARK   26  A    between atoms: _76  and  _77
REMARK   27  A    between atoms: _76  and  _79
REMARK   28  A    between atoms: _79  and  _80
REMARK   29  A    between atoms: _83  and  _85
REMARK   30  A    between atoms: _85  and  _86
REMARK   31  A    between atoms: _85  and  _88
REMARK   32  A    between atoms: _88  and  _89
REMARK   33  A    between atoms: _89  and  _90
REMARK   34  A    between atoms: _95  and  _97
REMARK   35  A    between atoms: _97  and  _98
REMARK   36  A    between atoms: _97  and  _100
REMARK   37  A    between atoms: _100  and  _101
REMARK   38  A    between atoms: _107  and  _109
REMARK   39  A    between atoms: _120  and  _123
REMARK   40  A    between atoms: _123  and  _124
REMARK   41  A    between atoms: _132  and  _133
REMARK   42  A    between atoms: _141  and  _143
REMARK   43  A    between atoms: _143  and  _144
REMARK   44  A    between atoms: _143  and  _146
REMARK   45  A    between atoms: _146  and  _147
REMARK   46  A    between atoms: _147  and  _148
REMARK   47  A    between atoms: _151  and  _153
REMARK   48  A    between atoms: _153  and  _154
REMARK   49  A    between atoms: _153  and  _156
REMARK   50  A    between atoms: _156  and  _157
REMARK   51  A    between atoms: _162  and  _164
REMARK   52  A    between atoms: _164  and  _165
REMARK   53  A    between atoms: _164  and  _167
REMARK   54  A    between atoms: _167  and  _168
REMARK   55  A    between atoms: _168  and  _169
REMARK   56  A    between atoms: _172  and  _174
REMARK   57  A    between atoms: _174  and  _175
REMARK   58  A    between atoms: _174  and  _177
REMARK   59  A    between atoms: _177  and  _178
REMARK   60  A    between atoms: _181  and  _183
REMARK   61  A    between atoms: _183  and  _184
REMARK   62  A    between atoms: _183  and  _186
REMARK   63  A    between atoms: _186  and  _187
REMARK   64  A    between atoms: _188  and  ZN_403
REMARK   65  A    between atoms: _192  and  _194
REMARK   66  A    between atoms: _194  and  _195
REMARK   67  A    between atoms: _194  and  _197
REMARK   68  A    between atoms: _197  and  _198
REMARK   69  A    between atoms: _201  and  _203
REMARK   70  A    between atoms: _203  and  _204
REMARK   71  A    between atoms: _203  and  _206
REMARK   72  A    between atoms: _209  and  _211
REMARK   73  A    between atoms: _211  and  _212
REMARK   74  A    between atoms: _211  and  _214
REMARK   75  A    between atoms: _214  and  _215
REMARK   76  A    between atoms: _220  and  _222
REMARK   77  A    between atoms: _222  and  _223
REMARK   78  A    between atoms: _222  and  _225
REMARK   79  A    between atoms: _225  and  _226
REMARK   80  A    between atoms: _232  and  _234
REMARK   81  A    between atoms: _234  and  _235
REMARK   82  A    between atoms: _234  and  _237
REMARK   83  A    between atoms: _240  and  _242
REMARK   84  A    between atoms: _242  and  _243
REMARK   85  A    between atoms: _242  and  _245
REMARK   86  A    between atoms: _245  and  _246
REMARK   87  A    between atoms: _249  and  _251
REMARK   88  A    between atoms: _251  and  _252
REMARK   89  A    between atoms: _255  and  _257
REMARK   90  A    between atoms: _257  and  _258
REMARK   91  A    between atoms: _257  and  _260
REMARK   92  A    between atoms: _263  and  _265
REMARK   93  A    between atoms: _265  and  _266
REMARK   94  A    between atoms: _265  and  _268
REMARK   95  A    between atoms: _268  and  _269
REMARK   96  A    between atoms: _272  and  _274
REMARK   97  A    between atoms: _274  and  _275
REMARK   98  A    between atoms: _277  and  _279
REMARK   99  A    between atoms: _279  and  _280
REMARK  100  A    between atoms: _279  and  _282
REMARK  101  A    between atoms: _282  and  _283
REMARK  102  A    between atoms: _285  and  _287
REMARK  103  A    between atoms: _287  and  _288
REMARK  104  A    between atoms: _287  and  _290
REMARK  105  A    between atoms: _290  and  _291
REMARK  106  A    between atoms: _294  and  _296
REMARK  107  A    between atoms: _296  and  _297
REMARK  108  A    between atoms: _296  and  _299
REMARK  109  A    between atoms: _299  and  _300
REMARK  110  A    between atoms: _303  and  _305
REMARK  111  A    between atoms: _305  and  _306
REMARK  112  A    between atoms: _305  and  _308
REMARK  113  A    between atoms: _308  and  _309
REMARK  114  A    between atoms: _313  and  _314
REMARK  115  A    between atoms: _320  and  _321
REMARK  116  A    between atoms: _326  and  _328
REMARK  117  A    between atoms: _328  and  _329
REMARK  118  A    between atoms: _328  and  _331
REMARK  119  A    between atoms: _331  and  _332
REMARK  120  A    between atoms: _335  and  _337
REMARK  121  A    between atoms: _337  and  _338
REMARK  122  A    between atoms: _337  and  _340
REMARK  123  A    between atoms: _340  and  _341
REMARK  124  A    between atoms: _344  and  _346
REMARK  125  A    between atoms: _346  and  _347
REMARK  126  A    between atoms: _346  and  _349
REMARK  127  A    between atoms: _351  and  _353
REMARK  128  A    between atoms: _353  and  _354
REMARK  129  A    between atoms: _353  and  _356
REMARK  130  A    between atoms: _359  and  _361
REMARK  131  A    between atoms: _361  and  _362
REMARK  132  A    between atoms: _361  and  _364
REMARK  133  A    between atoms: _364  and  _365
REMARK  134  A    between atoms: _375  and  _377
REMARK  135  A    between atoms: _377  and  _378
REMARK  136  A    between atoms: _377  and  _380
REMARK  137  A    between atoms: _380  and  _381
REMARK  138  A    between atoms: _386  and  _388
REMARK  139  A    between atoms: _388  and  _389
REMARK  140  A    between atoms: _388  and  _391
REMARK  141  A    between atoms: _391  and  _392
REMARK  142  A    between atoms: _392  and  _393
REMARK  143  A    between atoms: _393  and  _394
REMARK                            x       y       z     vdW  Elec       q    Type
REMARK                         _______ _______ _______ _____ _____    ______ ____
ROOT
ATOM      1  CG  TYR A   1      -1.995   5.212  11.767  0.00  0.00    -0.020 A 
ATOM      2  CD2 TYR A   1      -1.596   5.216  13.106  0.00  0.00    -0.001 A 
ATOM      3  CE2 TYR A   1      -0.778   4.222  13.621  0.00  0.00    +0.036 A 
ATOM      4  CZ  TYR A   1      -0.311   3.230  12.776  0.00  0.00    +0.134 A 
ATOM      5  CE1 TYR A   1      -0.701   3.189  11.443  0.00  0.00    +0.036 A 
ATOM      6  CD1 TYR A   1      -1.533   4.187  10.943  0.00  0.00    -0.001 A 
ENDROOT
BRANCH   4   7
ATOM      7  OH  TYR A   1       0.519   2.250  13.236  0.00  0.00    -0.506 OA
ATOM      8  HH  TYR A   1       0.711   2.405  14.195  0.00  0.00    +0.292 HD
ENDBRANCH   4   7
BRANCH   1   9
ATOM      9  CB  TYR A   1      -2.915   6.299  11.233  0.00  0.00    +0.051 C 
BRANCH   9  10
ATOM     10  CA  TYR A   1      -4.394   5.991  11.476  0.00  0.00    +0.137 C 
BRANCH  10  11
ATOM     11  N   TYR A   1      -4.795   4.805  10.735  0.00  0.00    -0.239 NA
ATOM     12  H   TYR A   1      -4.875   4.868   9.700  0.00  0.00    +0.142 HD
ENDBRANCH  10  11
BRANCH  10  13
ATOM     13  C   TYR A   1      -5.257   7.192  11.114  0.00  0.00    +0.224 C 
ATOM     14  O   TYR A   1      -4.906   8.322  11.442  0.00  0.00    -0.287 OA
ENDBRANCH  10  13
ENDBRANCH   9  10
ENDBRANCH   1   9
TORSDOF 5
REMARK  Name = ../refined-set-2016/2weo/2weo_pocket.pdb
REMARK  143 active torsions:
REMARK  status: ('A' for Active; 'I' for Inactive)
REMARK    1  A    between atoms: _1  and  _3
REMARK    2  A    between atoms: _3  and  _4
REMARK    3  A    between atoms: _3  and  _6
REMARK    4  A    between atoms: _6  and  _7
REMARK    5  A    between atoms: _17  and  _19
REMARK    6  A    between atoms: _19  and  _20
REMARK    7  A    between atoms: _19  and  _22
REMARK    8  A    between atoms: _22  and  _23
REMARK    9  A    between atoms: _28  and  _29
REMARK   10  A    between atoms: _31  and  _33
REMARK   11  A    between atoms: _33  and  _34
REMARK   12  A    between atoms: _33  and  _36
REMARK   13  A    between atoms: _36  and  _37
REMARK   14  A    between atoms: _40  and  _41
REMARK   15  A    between atoms: _46  and  _48
REMARK   16  A    between atoms: _48  and  _49
REMARK   17  A    between atoms: _48  and  _51
REMARK   18  A    between atoms: _51  and  _52
REMARK   19  A    between atoms: _57  and  _59
REMARK   20  A    between atoms: _59  and  _60
REMARK   21  A    between atoms: _63  and  _65
REMARK   22  A    between atoms: _65  and  _66
REMARK   23  A    between atoms: _65  and  _68
REMARK   24  A    between atoms: _68  and  _69
REMARK   25  A    between atoms: _74  and  _76
REMARK   26  A    between atoms: _76  and  _77
REMARK   27  A    between atoms: _76  and  _79
REMARK   28  A    between atoms: _79  and  _80
REMARK   29  A    between atoms: _83  and  _85
REMARK   30  A    between atoms: _85  and  _86
REMARK   31  A    between atoms: _85  and  _88
REMARK   32  A    between atoms: _88  and  _89
REMARK   33  A    between atoms: _89  and  _90
REMARK   34  A    between atoms: _95  and  _97
REMARK   35  A    between atoms: _97  and  _98
REMARK   36  A    between atoms: _97  and  _100
REMARK   37  A    between atoms: _100  and  _101
REMARK   38  A    between atoms: _107  and  _109
REMARK   39  A    between atoms: _120  and  _123
REMARK   40  A    between atoms: _123  and  _124
REMARK   41  A    between atoms: _132  and  _133
REMARK   42  A    between atoms: _141  and  _143
REMARK   43  A    between atoms: _143  and  _144
REMARK   44  A    between atoms: _143  and  _146
REMARK   45  A    between atoms: _146  and  _147
REMARK   46  A    between atoms: _147  and  _148
REMARK   47  A    between atoms: _151  and  _153
REMARK   48  A    between atoms: _153  and  _154
REMARK   49  A    between atoms: _153  and  _156
REMARK   50  A    between atoms: _156  and  _157
REMARK   51  A    between atoms: _162  and  _164
REMARK   52  A    between atoms: _164  and  _165
REMARK   53  A    between atoms: _164  and  _167
REMARK   54  A    between atoms: _167  and  _168
REMARK   55  A    between atoms: _168  and  _169
REMARK   56  A    between atoms: _172  and  _174
REMARK   57  A    between atoms: _174  and  _175
REMARK   58  A    between atoms: _174  and  _177
REMARK   59  A    between atoms: _177  and  _178
REMARK   60  A    between atoms: _181  and  _183
REMARK   61  A    between atoms: _183  and  _184
REMARK   62  A    between atoms: _183  and  _186
REMARK   63  A    between atoms: _186  and  _187
REMARK   64  A    between atoms: _188  and  ZN_403
REMARK   65  A    between atoms: _192  and  _194
REMARK   66  A    between atoms: _194  and  _195
REMARK   67  A    between atoms: _194  and  _197
REMARK   68  A    between atoms: _197  and  _198
REMARK   69  A    between atoms: _201  and  _203
REMARK   70  A    between atoms: _203  and  _204
REMARK   71  A    between atoms: _203  and  _206
REMARK   72  A    between atoms: _209  and  _211
REMARK   73  A    between atoms: _211  and  _212
REMARK   74  A    between atoms: _211  and  _214
REMARK   75  A    between atoms: _214  and  _215
REMARK   76  A    between atoms: _220  and  _222
REMARK   77  A    between atoms: _222  and  _223
REMARK   78  A    between atoms: _222  and  _225
REMARK   79  A    between atoms: _225  and  _226
REMARK   80  A    between atoms: _232  and  _234
REMARK   81  A    between atoms: _234  and  _235
REMARK   82  A    between atoms: _234  and  _237
REMARK   83  A    between atoms: _240  and  _242
REMARK   84  A    between atoms: _242  and  _243
REMARK   85  A    between atoms: _242  and  _245
REMARK   86  A    between atoms: _245  and  _246
REMARK   87  A    between atoms: _249  and  _251
REMARK   88  A    between atoms: _251  and  _252
REMARK   89  A    between atoms: _255  and  _257
REMARK   90  A    between atoms: _257  and  _258
REMARK   91  A    between atoms: _257  and  _260
REMARK   92  A    between atoms: _263  and  _265
REMARK   93  A    between atoms: _265  and  _266
REMARK   94  A    between atoms: _265  and  _268
REMARK   95  A    between atoms: _268  and  _269
REMARK   96  A    between atoms: _272  and  _274
REMARK   97  A    between atoms: _274  and  _275
REMARK   98  A    between atoms: _277  and  _279
REMARK   99  A    between atoms: _279  and  _280
REMARK  100  A    between atoms: _279  and  _282
REMARK  101  A    between atoms: _282  and  _283
REMARK  102  A    between atoms: _285  and  _287
REMARK  103  A    between atoms: _287  and  _288
REMARK  104  A    between atoms: _287  and  _290
REMARK  105  A    between atoms: _290  and  _291
REMARK  106  A    between atoms: _294  and  _296
REMARK  107  A    between atoms: _296  and  _297
REMARK  108  A    between atoms: _296  and  _299
REMARK  109  A    between atoms: _299  and  _300
REMARK  110  A    between atoms: _303  and  _305
REMARK  111  A    between atoms: _305  and  _306
REMARK  112  A    between atoms: _305  and  _308
REMARK  113  A    between atoms: _308  and  _309
REMARK  114  A    between atoms: _313  and  _314
REMARK  115  A    between atoms: _320  and  _321
REMARK  116  A    between atoms: _326  and  _328
REMARK  117  A    between atoms: _328  and  _329
REMARK  118  A    between atoms: _328  and  _331
REMARK  119  A    between atoms: _331  and  _332
REMARK  120  A    between atoms: _335  and  _337
REMARK  121  A    between atoms: _337  and  _338
REMARK  122  A    between atoms: _337  and  _340
REMARK  123  A    between atoms: _340  and  _341
REMARK  124  A    between atoms: _344  and  _346
REMARK  125  A    between atoms: _346  and  _347
REMARK  126  A    between atoms: _346  and  _349
REMARK  127  A    between atoms: _351  and  _353
REMARK  128  A    between atoms: _353  and  _354
REMARK  129  A    between atoms: _353  and  _356
REMARK  130  A    between atoms: _359  and  _361
REMARK  131  A    between atoms: _361  and  _362
REMARK  132  A    between atoms: _361  and  _364
REMARK  133  A    between atoms: _364  and  _365
REMARK  134  A    between atoms: _375  and  _377
REMARK  135  A    between atoms: _377  and  _378
REMARK  136  A    between atoms: _377  and  _380
REMARK  137  A    between atoms: _380  and  _381
REMARK  138  A    between atoms: _386  and  _388
REMARK  139  A    between atoms: _388  and  _389
REMARK  140  A    between atoms: _388  and  _391
REMARK  141  A    between atoms: _391  and  _392
REMARK  142  A    between atoms: _392  and  _393
REMARK  143  A    between atoms: _393  and  _394
REMARK                            x       y       z     vdW  Elec       q    Type
REMARK                         _______ _______ _______ _____ _____    ______ ____
ROOT
ATOM      1  C   SER A   1       2.301   1.343  23.148  0.00  0.00    +0.244 C 
ATOM      2  N   PRO A   2       2.940   2.487  22.884  0.00  0.00    -0.273 N 
ATOM      3  CA  PRO A   2       4.112   3.020  23.556  0.00  0.00    +0.140 C 
ATOM      4  CB  PRO A   2       4.620   4.042  22.540  0.00  0.00    +0.030 C 
ATOM      5  CG  PRO A   2       3.343   4.618  21.986  0.00  0.00    +0.024 C 
ATOM      6  CD  PRO A   2       2.482   3.391  21.799  0.00  0.00    +0.094 C 
ATOM      7  O   SER A   1       1.341   0.961  22.475  0.00  0.00    -0.273 OA
ENDROOT
BRANCH   3   8
ATOM      8  C   PRO A   2       3.728   3.709  24.857  0.00  0.00    +0.227 C 
ATOM      9  O   PRO A   2       2.538   3.751  25.216  0.00  0.00    -0.286 OA
ENDBRANCH   3   8
BRANCH   1  10
ATOM     10  CA  SER A   1       2.842   0.472  24.278  0.00  0.00    +0.175 C 
BRANCH  10  11
ATOM     11  N   SER A   1       1.792  -0.412  24.743  0.00  0.00    -0.236 NA
ATOM     12  H   SER A   1       1.313  -1.025  24.053  0.00  0.00    +0.142 HD
ENDBRANCH  10  11
BRANCH  10  13
ATOM     13  CB  SER A   1       3.992  -0.370  23.737  0.00  0.00    +0.163 C 
BRANCH  13  14
ATOM     14  OG  SER A   1       4.627  -1.079  24.793  0.00  0.00    -0.380 OA
ATOM     15  H   SER A   1       4.982  -0.434  25.455  0.00  0.00    +0.211 HD
ENDBRANCH  13  14
ENDBRANCH  10  13
ENDBRANCH   1  10
TORSDOF 5
REMARK  Name = ../refined-set-2016/2weo/2weo_pocket.pdb
REMARK  143 active torsions:
REMARK  status: ('A' for Active; 'I' for Inactive)
REMARK    1  A    between atoms: _1  and  _3
REMARK    2  A    between atoms: _3  and  _4
REMARK    3  A    between atoms: _3  and  _6
REMARK    4  A    between atoms: _6  and  _7
REMARK    5  A    between atoms: _17  and  _19
REMARK    6  A    between atoms: _19  and  _20
REMARK    7  A    between atoms: _19  and  _22
REMARK    8  A    between atoms: _22  and  _23
REMARK    9  A    between atoms: _28  and  _29
REMARK   10  A    between atoms: _31  and  _33
REMARK   11  A    between atoms: _33  and  _34
REMARK   12  A    between atoms: _33  and  _36
REMARK   13  A    between atoms: _36  and  _37
REMARK   14  A    between atoms: _40  and  _41
REMARK   15  A    between atoms: _46  and  _48
REMARK   16  A    between atoms: _48  and  _49
REMARK   17  A    between atoms: _48  and  _51
REMARK   18  A    between atoms: _51  and  _52
REMARK   19  A    between atoms: _57  and  _59
REMARK   20  A    between atoms: _59  and  _60
REMARK   21  A    between atoms: _63  and  _65
REMARK   22  A    between atoms: _65  and  _66
REMARK   23  A    between atoms: _65  and  _68
REMARK   24  A    between atoms: _68  and  _69
REMARK   25  A    between atoms: _74  and  _76
REMARK   26  A    between atoms: _76  and  _77
REMARK   27  A    between atoms: _76  and  _79
REMARK   28  A    between atoms: _79  and  _80
REMARK   29  A    between atoms: _83  and  _85
REMARK   30  A    between atoms: _85  and  _86
REMARK   31  A    between atoms: _85  and  _88
REMARK   32  A    between atoms: _88  and  _89
REMARK   33  A    between atoms: _89  and  _90
REMARK   34  A    between atoms: _95  and  _97
REMARK   35  A    between atoms: _97  and  _98
REMARK   36  A    between atoms: _97  and  _100
REMARK   37  A    between atoms: _100  and  _101
REMARK   38  A    between atoms: _107  and  _109
REMARK   39  A    between atoms: _120  and  _123
REMARK   40  A    between atoms: _123  and  _124
REMARK   41  A    between atoms: _132  and  _133
REMARK   42  A    between atoms: _141  and  _143
REMARK   43  A    between atoms: _143  and  _144
REMARK   44  A    between atoms: _143  and  _146
REMARK   45  A    between atoms: _146  and  _147
REMARK   46  A    between atoms: _147  and  _148
REMARK   47  A    between atoms: _151  and  _153
REMARK   48  A    between atoms: _153  and  _154
REMARK   49  A    between atoms: _153  and  _156
REMARK   50  A    between atoms: _156  and  _157
REMARK   51  A    between atoms: _162  and  _164
REMARK   52  A    between atoms: _164  and  _165
REMARK   53  A    between atoms: _164  and  _167
REMARK   54  A    between atoms: _167  and  _168
REMARK   55  A    between atoms: _168  and  _169
REMARK   56  A    between atoms: _172  and  _174
REMARK   57  A    between atoms: _174  and  _175
REMARK   58  A    between atoms: _174  and  _177
REMARK   59  A    between atoms: _177  and  _178
REMARK   60  A    between atoms: _181  and  _183
REMARK   61  A    between atoms: _183  and  _184
REMARK   62  A    between atoms: _183  and  _186
REMARK   63  A    between atoms: _186  and  _187
REMARK   64  A    between atoms: _188  and  ZN_403
REMARK   65  A    between atoms: _192  and  _194
REMARK   66  A    between atoms: _194  and  _195
REMARK   67  A    between atoms: _194  and  _197
REMARK   68  A    between atoms: _197  and  _198
REMARK   69  A    between atoms: _201  and  _203
REMARK   70  A    between atoms: _203  and  _204
REMARK   71  A    between atoms: _203  and  _206
REMARK   72  A    between atoms: _209  and  _211
REMARK   73  A    between atoms: _211  and  _212
REMARK   74  A    between atoms: _211  and  _214
REMARK   75  A    between atoms: _214  and  _215
REMARK   76  A    between atoms: _220  and  _222
REMARK   77  A    between atoms: _222  and  _223
REMARK   78  A    between atoms: _222  and  _225
REMARK   79  A    between atoms: _225  and  _226
REMARK   80  A    between atoms: _232  and  _234
REMARK   81  A    between atoms: _234  and  _235
REMARK   82  A    between atoms: _234  and  _237
REMARK   83  A    between atoms: _240  and  _242
REMARK   84  A    between atoms: _242  and  _243
REMARK   85  A    between atoms: _242  and  _245
REMARK   86  A    between atoms: _245  and  _246
REMARK   87  A    between atoms: _249  and  _251
REMARK   88  A    between atoms: _251  and  _252
REMARK   89  A    between atoms: _255  and  _257
REMARK   90  A    between atoms: _257  and  _258
REMARK   91  A    between atoms: _257  and  _260
REMARK   92  A    between atoms: _263  and  _265
REMARK   93  A    between atoms: _265  and  _266
REMARK   94  A    between atoms: _265  and  _268
REMARK   95  A    between atoms: _268  and  _269
REMARK   96  A    between atoms: _272  and  _274
REMARK   97  A    between atoms: _274  and  _275
REMARK   98  A    between atoms: _277  and  _279
REMARK   99  A    between atoms: _279  and  _280
REMARK  100  A    between atoms: _279  and  _282
REMARK  101  A    between atoms: _282  and  _283
REMARK  102  A    between atoms: _285  and  _287
REMARK  103  A    between atoms: _287  and  _288
REMARK  104  A    between atoms: _287  and  _290
REMARK  105  A    between atoms: _290  and  _291
REMARK  106  A    between atoms: _294  and  _296
REMARK  107  A    between atoms: _296  and  _297
REMARK  108  A    between atoms: _296  and  _299
REMARK  109  A    between atoms: _299  and  _300
REMARK  110  A    between atoms: _303  and  _305
REMARK  111  A    between atoms: _305  and  _306
REMARK  112  A    between atoms: _305  and  _308
REMARK  113  A    between atoms: _308  and  _309
REMARK  114  A    between atoms: _313  and  _314
REMARK  115  A    between atoms: _320  and  _321
REMARK  116  A    between atoms: _326  and  _328
REMARK  117  A    between atoms: _328  and  _329
REMARK  118  A    between atoms: _328  and  _331
REMARK  119  A    between atoms: _331  and  _332
REMARK  120  A    between atoms: _335  and  _337
REMARK  121  A    between atoms: _337  and  _338
REMARK  122  A    between atoms: _337  and  _340
REMARK  123  A    between atoms: _340  and  _341
REMARK  124  A    between atoms: _344  and  _346
REMARK  125  A    between atoms: _346  and  _347
REMARK  126  A    between atoms: _346  and  _349
REMARK  127  A    between atoms: _351  and  _353
REMARK  128  A    between atoms: _353  and  _354
REMARK  129  A    between atoms: _353  and  _356
REMARK  130  A    between atoms: _359  and  _361
REMARK  131  A    between atoms: _361  and  _362
REMARK  132  A    between atoms: _361  and  _364
REMARK  133  A    between atoms: _364  and  _365
REMARK  134  A    between atoms: _375  and  _377
REMARK  135  A    between atoms: _377  and  _378
REMARK  136  A    between atoms: _377  and  _380
REMARK  137  A    between atoms: _380  and  _381
REMARK  138  A    between atoms: _386  and  _388
REMARK  139  A    between atoms: _388  and  _389
REMARK  140  A    between atoms: _388  and  _391
REMARK  141  A    between atoms: _391  and  _392
REMARK  142  A    between atoms: _392  and  _393
REMARK  143  A    between atoms: _393  and  _394
REMARK                            x       y       z     vdW  Elec       q    Type
REMARK                         _______ _______ _______ _____ _____    ______ ____
ROOT
ATOM      1  CB  ASN A   1       2.618  -3.945   5.372  0.00  0.00    +0.110 C 
ENDROOT
BRANCH   1   2
ATOM      2  CG  ASN A   1       2.974  -3.071   6.547  0.00  0.00    +0.221 C 
ATOM      3  ND2 ASN A   1       3.659  -3.639   7.523  0.00  0.00    -0.329 N 
ATOM      4 HD21 ASN A   1       3.916  -3.088   8.367  0.00  0.00    +0.145 HD
ATOM      5 HD22 ASN A   1       3.941  -4.637   7.448  0.00  0.00    +0.145 HD
ATOM      6  OD1 ASN A   1       2.618  -1.896   6.589  0.00  0.00    -0.275 OA
ENDBRANCH   1   2
BRANCH   1   7
ATOM      7  CA  ASN A   1       2.234  -3.126   4.122  0.00  0.00    +0.142 C 
BRANCH   7   8
ATOM      8  N   ASN A   1       3.338  -2.264   3.678  0.00  0.00    -0.239 NA
ATOM      9  H   ASN A   1       3.860  -1.692   4.371  0.00  0.00    +0.142 HD
ENDBRANCH   7   8
BRANCH   7  10
ATOM     10  C   ASN A   1       0.958  -2.339   4.376  0.00  0.00    +0.225 C 
ATOM     11  O   ASN A   1      -0.011  -2.879   4.926  0.00  0.00    -0.287 OA
ENDBRANCH   7  10
ENDBRANCH   1   7
TORSDOF 4
REMARK  Name = ../refined-set-2016/2weo/2weo_pocket.pdb
REMARK  143 active torsions:
REMARK  status: ('A' for Active; 'I' for Inactive)
REMARK    1  A    between atoms: _1  and  _3
REMARK    2  A    between atoms: _3  and  _4
REMARK    3  A    between atoms: _3  and  _6
REMARK    4  A    between atoms: _6  and  _7
REMARK    5  A    between atoms: _17  and  _19
REMARK    6  A    between atoms: _19  and  _20
REMARK    7  A    between atoms: _19  and  _22
REMARK    8  A    between atoms: _22  and  _23
REMARK    9  A    between atoms: _28  and  _29
REMARK   10  A    between atoms: _31  and  _33
REMARK   11  A    between atoms: _33  and  _34
REMARK   12  A    between atoms: _33  and  _36
REMARK   13  A    between atoms: _36  and  _37
REMARK   14  A    between atoms: _40  and  _41
REMARK   15  A    between atoms: _46  and  _48
REMARK   16  A    between atoms: _48  and  _49
REMARK   17  A    between atoms: _48  and  _51
REMARK   18  A    between atoms: _51  and  _52
REMARK   19  A    between atoms: _57  and  _59
REMARK   20  A    between atoms: _59  and  _60
REMARK   21  A    between atoms: _63  and  _65
REMARK   22  A    between atoms: _65  and  _66
REMARK   23  A    between atoms: _65  and  _68
REMARK   24  A    between atoms: _68  and  _69
REMARK   25  A    between atoms: _74  and  _76
REMARK   26  A    between atoms: _76  and  _77
REMARK   27  A    between atoms: _76  and  _79
REMARK   28  A    between atoms: _79  and  _80
REMARK   29  A    between atoms: _83  and  _85
REMARK   30  A    between atoms: _85  and  _86
REMARK   31  A    between atoms: _85  and  _88
REMARK   32  A    between atoms: _88  and  _89
REMARK   33  A    between atoms: _89  and  _90
REMARK   34  A    between atoms: _95  and  _97
REMARK   35  A    between atoms: _97  and  _98
REMARK   36  A    between atoms: _97  and  _100
REMARK   37  A    between atoms: _100  and  _101
REMARK   38  A    between atoms: _107  and  _109
REMARK   39  A    between atoms: _120  and  _123
REMARK   40  A    between atoms: _123  and  _124
REMARK   41  A    between atoms: _132  and  _133
REMARK   42  A    between atoms: _141  and  _143
REMARK   43  A    between atoms: _143  and  _144
REMARK   44  A    between atoms: _143  and  _146
REMARK   45  A    between atoms: _146  and  _147
REMARK   46  A    between atoms: _147  and  _148
REMARK   47  A    between atoms: _151  and  _153
REMARK   48  A    between atoms: _153  and  _154
REMARK   49  A    between atoms: _153  and  _156
REMARK   50  A    between atoms: _156  and  _157
REMARK   51  A    between atoms: _162  and  _164
REMARK   52  A    between atoms: _164  and  _165
REMARK   53  A    between atoms: _164  and  _167
REMARK   54  A    between atoms: _167  and  _168
REMARK   55  A    between atoms: _168  and  _169
REMARK   56  A    between atoms: _172  and  _174
REMARK   57  A    between atoms: _174  and  _175
REMARK   58  A    between atoms: _174  and  _177
REMARK   59  A    between atoms: _177  and  _178
REMARK   60  A    between atoms: _181  and  _183
REMARK   61  A    between atoms: _183  and  _184
REMARK   62  A    between atoms: _183  and  _186
REMARK   63  A    between atoms: _186  and  _187
REMARK   64  A    between atoms: _188  and  ZN_403
REMARK   65  A    between atoms: _192  and  _194
REMARK   66  A    between atoms: _194  and  _195
REMARK   67  A    between atoms: _194  and  _197
REMARK   68  A    between atoms: _197  and  _198
REMARK   69  A    between atoms: _201  and  _203
REMARK   70  A    between atoms: _203  and  _204
REMARK   71  A    between atoms: _203  and  _206
REMARK   72  A    between atoms: _209  and  _211
REMARK   73  A    between atoms: _211  and  _212
REMARK   74  A    between atoms: _211  and  _214
REMARK   75  A    between atoms: _214  and  _215
REMARK   76  A    between atoms: _220  and  _222
REMARK   77  A    between atoms: _222  and  _223
REMARK   78  A    between atoms: _222  and  _225
REMARK   79  A    between atoms: _225  and  _226
REMARK   80  A    between atoms: _232  and  _234
REMARK   81  A    between atoms: _234  and  _235
REMARK   82  A    between atoms: _234  and  _237
REMARK   83  A    between atoms: _240  and  _242
REMARK   84  A    between atoms: _242  and  _243
REMARK   85  A    between atoms: _242  and  _245
REMARK   86  A    between atoms: _245  and  _246
REMARK   87  A    between atoms: _249  and  _251
REMARK   88  A    between atoms: _251  and  _252
REMARK   89  A    between atoms: _255  and  _257
REMARK   90  A    between atoms: _257  and  _258
REMARK   91  A    between atoms: _257  and  _260
REMARK   92  A    between atoms: _263  and  _265
REMARK   93  A    between atoms: _265  and  _266
REMARK   94  A    between atoms: _265  and  _268
REMARK   95  A    between atoms: _268  and  _269
REMARK   96  A    between atoms: _272  and  _274
REMARK   97  A    between atoms: _274  and  _275
REMARK   98  A    between atoms: _277  and  _279
REMARK   99  A    between atoms: _279  and  _280
REMARK  100  A    between atoms: _279  and  _282
REMARK  101  A    between atoms: _282  and  _283
REMARK  102  A    between atoms: _285  and  _287
REMARK  103  A    between atoms: _287  and  _288
REMARK  104  A    between atoms: _287  and  _290
REMARK  105  A    between atoms: _290  and  _291
REMARK  106  A    between atoms: _294  and  _296
REMARK  107  A    between atoms: _296  and  _297
REMARK  108  A    between atoms: _296  and  _299
REMARK  109  A    between atoms: _299  and  _300
REMARK  110  A    between atoms: _303  and  _305
REMARK  111  A    between atoms: _305  and  _306
REMARK  112  A    between atoms: _305  and  _308
REMARK  113  A    between atoms: _308  and  _309
REMARK  114  A    between atoms: _313  and  _314
REMARK  115  A    between atoms: _320  and  _321
REMARK  116  A    between atoms: _326  and  _328
REMARK  117  A    between atoms: _328  and  _329
REMARK  118  A    between atoms: _328  and  _331
REMARK  119  A    between atoms: _331  and  _332
REMARK  120  A    between atoms: _335  and  _337
REMARK  121  A    between atoms: _337  and  _338
REMARK  122  A    between atoms: _337  and  _340
REMARK  123  A    between atoms: _340  and  _341
REMARK  124  A    between atoms: _344  and  _346
REMARK  125  A    between atoms: _346  and  _347
REMARK  126  A    between atoms: _346  and  _349
REMARK  127  A    between atoms: _351  and  _353
REMARK  128  A    between atoms: _353  and  _354
REMARK  129  A    between atoms: _353  and  _356
REMARK  130  A    between atoms: _359  and  _361
REMARK  131  A    between atoms: _361  and  _362
REMARK  132  A    between atoms: _361  and  _364
REMARK  133  A    between atoms: _364  and  _365
REMARK  134  A    between atoms: _375  and  _377
REMARK  135  A    between atoms: _377  and  _378
REMARK  136  A    between atoms: _377  and  _380
REMARK  137  A    between atoms: _380  and  _381
REMARK  138  A    between atoms: _386  and  _388
REMARK  139  A    between atoms: _388  and  _389
REMARK  140  A    between atoms: _388  and  _391
REMARK  141  A    between atoms: _391  and  _392
REMARK  142  A    between atoms: _392  and  _393
REMARK  143  A    between atoms: _393  and  _394
REMARK                            x       y       z     vdW  Elec       q    Type
REMARK                         _______ _______ _______ _____ _____    ______ ____
ROOT
ATOM      1  CA  ALA A   1       4.600   1.356   7.367  0.00  0.00    +0.133 C 
ATOM      2  CB  ALA A   1       5.245   1.074   8.739  0.00  0.00    +0.027 C 
ENDROOT
BRANCH   1   3
ATOM      3  N   ALA A   1       3.226   0.867   7.336  0.00  0.00    -0.239 NA
ATOM      4  H   ALA A   1       3.038  -0.032   6.849  0.00  0.00    +0.142 HD
ENDBRANCH   1   3
BRANCH   1   5
ATOM      5  C   ALA A   1       5.324   0.612   6.238  0.00  0.00    +0.224 C 
ATOM      6  O   ALA A   1       4.669  -0.036   5.411  0.00  0.00    -0.287 OA
ENDBRANCH   1   5
TORSDOF 2
REMARK  Name = ../refined-set-2016/2weo/2weo_pocket.pdb
REMARK  143 active torsions:
REMARK  status: ('A' for Active; 'I' for Inactive)
REMARK    1  A    between atoms: _1  and  _3
REMARK    2  A    between atoms: _3  and  _4
REMARK    3  A    between atoms: _3  and  _6
REMARK    4  A    between atoms: _6  and  _7
REMARK    5  A    between atoms: _17  and  _19
REMARK    6  A    between atoms: _19  and  _20
REMARK    7  A    between atoms: _19  and  _22
REMARK    8  A    between atoms: _22  and  _23
REMARK    9  A    between atoms: _28  and  _29
REMARK   10  A    between atoms: _31  and  _33
REMARK   11  A    between atoms: _33  and  _34
REMARK   12  A    between atoms: _33  and  _36
REMARK   13  A    between atoms: _36  and  _37
REMARK   14  A    between atoms: _40  and  _41
REMARK   15  A    between atoms: _46  and  _48
REMARK   16  A    between atoms: _48  and  _49
REMARK   17  A    between atoms: _48  and  _51
REMARK   18  A    between atoms: _51  and  _52
REMARK   19  A    between atoms: _57  and  _59
REMARK   20  A    between atoms: _59  and  _60
REMARK   21  A    between atoms: _63  and  _65
REMARK   22  A    between atoms: _65  and  _66
REMARK   23  A    between atoms: _65  and  _68
REMARK   24  A    between atoms: _68  and  _69
REMARK   25  A    between atoms: _74  and  _76
REMARK   26  A    between atoms: _76  and  _77
REMARK   27  A    between atoms: _76  and  _79
REMARK   28  A    between atoms: _79  and  _80
REMARK   29  A    between atoms: _83  and  _85
REMARK   30  A    between atoms: _85  and  _86
REMARK   31  A    between atoms: _85  and  _88
REMARK   32  A    between atoms: _88  and  _89
REMARK   33  A    between atoms: _89  and  _90
REMARK   34  A    between atoms: _95  and  _97
REMARK   35  A    between atoms: _97  and  _98
REMARK   36  A    between atoms: _97  and  _100
REMARK   37  A    between atoms: _100  and  _101
REMARK   38  A    between atoms: _107  and  _109
REMARK   39  A    between atoms: _120  and  _123
REMARK   40  A    between atoms: _123  and  _124
REMARK   41  A    between atoms: _132  and  _133
REMARK   42  A    between atoms: _141  and  _143
REMARK   43  A    between atoms: _143  and  _144
REMARK   44  A    between atoms: _143  and  _146
REMARK   45  A    between atoms: _146  and  _147
REMARK   46  A    between atoms: _147  and  _148
REMARK   47  A    between atoms: _151  and  _153
REMARK   48  A    between atoms: _153  and  _154
REMARK   49  A    between atoms: _153  and  _156
REMARK   50  A    between atoms: _156  and  _157
REMARK   51  A    between atoms: _162  and  _164
REMARK   52  A    between atoms: _164  and  _165
REMARK   53  A    between atoms: _164  and  _167
REMARK   54  A    between atoms: _167  and  _168
REMARK   55  A    between atoms: _168  and  _169
REMARK   56  A    between atoms: _172  and  _174
REMARK   57  A    between atoms: _174  and  _175
REMARK   58  A    between atoms: _174  and  _177
REMARK   59  A    between atoms: _177  and  _178
REMARK   60  A    between atoms: _181  and  _183
REMARK   61  A    between atoms: _183  and  _184
REMARK   62  A    between atoms: _183  and  _186
REMARK   63  A    between atoms: _186  and  _187
REMARK   64  A    between atoms: _188  and  ZN_403
REMARK   65  A    between atoms: _192  and  _194
REMARK   66  A    between atoms: _194  and  _195
REMARK   67  A    between atoms: _194  and  _197
REMARK   68  A    between atoms: _197  and  _198
REMARK   69  A    between atoms: _201  and  _203
REMARK   70  A    between atoms: _203  and  _204
REMARK   71  A    between atoms: _203  and  _206
REMARK   72  A    between atoms: _209  and  _211
REMARK   73  A    between atoms: _211  and  _212
REMARK   74  A    between atoms: _211  and  _214
REMARK   75  A    between atoms: _214  and  _215
REMARK   76  A    between atoms: _220  and  _222
REMARK   77  A    between atoms: _222  and  _223
REMARK   78  A    between atoms: _222  and  _225
REMARK   79  A    between atoms: _225  and  _226
REMARK   80  A    between atoms: _232  and  _234
REMARK   81  A    between atoms: _234  and  _235
REMARK   82  A    between atoms: _234  and  _237
REMARK   83  A    between atoms: _240  and  _242
REMARK   84  A    between atoms: _242  and  _243
REMARK   85  A    between atoms: _242  and  _245
REMARK   86  A    between atoms: _245  and  _246
REMARK   87  A    between atoms: _249  and  _251
REMARK   88  A    between atoms: _251  and  _252
REMARK   89  A    between atoms: _255  and  _257
REMARK   90  A    between atoms: _257  and  _258
REMARK   91  A    between atoms: _257  and  _260
REMARK   92  A    between atoms: _263  and  _265
REMARK   93  A    between atoms: _265  and  _266
REMARK   94  A    between atoms: _265  and  _268
REMARK   95  A    between atoms: _268  and  _269
REMARK   96  A    between atoms: _272  and  _274
REMARK   97  A    between atoms: _274  and  _275
REMARK   98  A    between atoms: _277  and  _279
REMARK   99  A    between atoms: _279  and  _280
REMARK  100  A    between atoms: _279  and  _282
REMARK  101  A    between atoms: _282  and  _283
REMARK  102  A    between atoms: _285  and  _287
REMARK  103  A    between atoms: _287  and  _288
REMARK  104  A    between atoms: _287  and  _290
REMARK  105  A    between atoms: _290  and  _291
REMARK  106  A    between atoms: _294  and  _296
REMARK  107  A    between atoms: _296  and  _297
REMARK  108  A    between atoms: _296  and  _299
REMARK  109  A    between atoms: _299  and  _300
REMARK  110  A    between atoms: _303  and  _305
REMARK  111  A    between atoms: _305  and  _306
REMARK  112  A    between atoms: _305  and  _308
REMARK  113  A    between atoms: _308  and  _309
REMARK  114  A    between atoms: _313  and  _314
REMARK  115  A    between atoms: _320  and  _321
REMARK  116  A    between atoms: _326  and  _328
REMARK  117  A    between atoms: _328  and  _329
REMARK  118  A    between atoms: _328  and  _331
REMARK  119  A    between atoms: _331  and  _332
REMARK  120  A    between atoms: _335  and  _337
REMARK  121  A    between atoms: _337  and  _338
REMARK  122  A    between atoms: _337  and  _340
REMARK  123  A    between atoms: _340  and  _341
REMARK  124  A    between atoms: _344  and  _346
REMARK  125  A    between atoms: _346  and  _347
REMARK  126  A    between atoms: _346  and  _349
REMARK  127  A    between atoms: _351  and  _353
REMARK  128  A    between atoms: _353  and  _354
REMARK  129  A    between atoms: _353  and  _356
REMARK  130  A    between atoms: _359  and  _361
REMARK  131  A    between atoms: _361  and  _362
REMARK  132  A    between atoms: _361  and  _364
REMARK  133  A    between atoms: _364  and  _365
REMARK  134  A    between atoms: _375  and  _377
REMARK  135  A    between atoms: _377  and  _378
REMARK  136  A    between atoms: _377  and  _380
REMARK  137  A    between atoms: _380  and  _381
REMARK  138  A    between atoms: _386  and  _388
REMARK  139  A    between atoms: _388  and  _389
REMARK  140  A    between atoms: _388  and  _391
REMARK  141  A    between atoms: _391  and  _392
REMARK  142  A    between atoms: _392  and  _393
REMARK  143  A    between atoms: _393  and  _394
REMARK                            x       y       z     vdW  Elec       q    Type
REMARK                         _______ _______ _______ _____ _____    ______ ____
ROOT
ATOM      1  CB  ASN A   1       8.537  -4.532   6.997  0.00  0.00    +0.110 C 
ENDROOT
BRANCH   1   2
ATOM      2  CG  ASN A   1       7.457  -4.305   8.021  0.00  0.00    +0.221 C 
ATOM      3  ND2 ASN A   1       7.382  -3.125   8.573  0.00  0.00    -0.329 N 
ATOM      4 HD21 ASN A   1       6.643  -2.926   9.277  0.00  0.00    +0.145 HD
ATOM      5 HD22 ASN A   1       8.061  -2.383   8.309  0.00  0.00    +0.145 HD
ATOM      6  OD1 ASN A   1       6.668  -5.234   8.300  0.00  0.00    -0.275 OA
ENDBRANCH   1   2
BRANCH   1   7
ATOM      7  CA  ASN A   1       9.293  -3.264   6.590  0.00  0.00    +0.142 C 
BRANCH   7   8
ATOM      8  N   ASN A   1       8.452  -2.331   5.832  0.00  0.00    -0.239 NA
ATOM      9  H   ASN A   1       7.921  -2.677   5.007  0.00  0.00    +0.142 HD
ENDBRANCH   7   8
BRANCH   7  10
ATOM     10  C   ASN A   1      10.476  -3.699   5.744  0.00  0.00    +0.225 C 
ATOM     11  O   ASN A   1      10.285  -4.137   4.599  0.00  0.00    -0.287 OA
ENDBRANCH   7  10
ENDBRANCH   1   7
TORSDOF 4
REMARK  Name = ../refined-set-2016/2weo/2weo_pocket.pdb
REMARK  143 active torsions:
REMARK  status: ('A' for Active; 'I' for Inactive)
REMARK    1  A    between atoms: _1  and  _3
REMARK    2  A    between atoms: _3  and  _4
REMARK    3  A    between atoms: _3  and  _6
REMARK    4  A    between atoms: _6  and  _7
REMARK    5  A    between atoms: _17  and  _19
REMARK    6  A    between atoms: _19  and  _20
REMARK    7  A    between atoms: _19  and  _22
REMARK    8  A    between atoms: _22  and  _23
REMARK    9  A    between atoms: _28  and  _29
REMARK   10  A    between atoms: _31  and  _33
REMARK   11  A    between atoms: _33  and  _34
REMARK   12  A    between atoms: _33  and  _36
REMARK   13  A    between atoms: _36  and  _37
REMARK   14  A    between atoms: _40  and  _41
REMARK   15  A    between atoms: _46  and  _48
REMARK   16  A    between atoms: _48  and  _49
REMARK   17  A    between atoms: _48  and  _51
REMARK   18  A    between atoms: _51  and  _52
REMARK   19  A    between atoms: _57  and  _59
REMARK   20  A    between atoms: _59  and  _60
REMARK   21  A    between atoms: _63  and  _65
REMARK   22  A    between atoms: _65  and  _66
REMARK   23  A    between atoms: _65  and  _68
REMARK   24  A    between atoms: _68  and  _69
REMARK   25  A    between atoms: _74  and  _76
REMARK   26  A    between atoms: _76  and  _77
REMARK   27  A    between atoms: _76  and  _79
REMARK   28  A    between atoms: _79  and  _80
REMARK   29  A    between atoms: _83  and  _85
REMARK   30  A    between atoms: _85  and  _86
REMARK   31  A    between atoms: _85  and  _88
REMARK   32  A    between atoms: _88  and  _89
REMARK   33  A    between atoms: _89  and  _90
REMARK   34  A    between atoms: _95  and  _97
REMARK   35  A    between atoms: _97  and  _98
REMARK   36  A    between atoms: _97  and  _100
REMARK   37  A    between atoms: _100  and  _101
REMARK   38  A    between atoms: _107  and  _109
REMARK   39  A    between atoms: _120  and  _123
REMARK   40  A    between atoms: _123  and  _124
REMARK   41  A    between atoms: _132  and  _133
REMARK   42  A    between atoms: _141  and  _143
REMARK   43  A    between atoms: _143  and  _144
REMARK   44  A    between atoms: _143  and  _146
REMARK   45  A    between atoms: _146  and  _147
REMARK   46  A    between atoms: _147  and  _148
REMARK   47  A    between atoms: _151  and  _153
REMARK   48  A    between atoms: _153  and  _154
REMARK   49  A    between atoms: _153  and  _156
REMARK   50  A    between atoms: _156  and  _157
REMARK   51  A    between atoms: _162  and  _164
REMARK   52  A    between atoms: _164  and  _165
REMARK   53  A    between atoms: _164  and  _167
REMARK   54  A    between atoms: _167  and  _168
REMARK   55  A    between atoms: _168  and  _169
REMARK   56  A    between atoms: _172  and  _174
REMARK   57  A    between atoms: _174  and  _175
REMARK   58  A    between atoms: _174  and  _177
REMARK   59  A    between atoms: _177  and  _178
REMARK   60  A    between atoms: _181  and  _183
REMARK   61  A    between atoms: _183  and  _184
REMARK   62  A    between atoms: _183  and  _186
REMARK   63  A    between atoms: _186  and  _187
REMARK   64  A    between atoms: _188  and  ZN_403
REMARK   65  A    between atoms: _192  and  _194
REMARK   66  A    between atoms: _194  and  _195
REMARK   67  A    between atoms: _194  and  _197
REMARK   68  A    between atoms: _197  and  _198
REMARK   69  A    between atoms: _201  and  _203
REMARK   70  A    between atoms: _203  and  _204
REMARK   71  A    between atoms: _203  and  _206
REMARK   72  A    between atoms: _209  and  _211
REMARK   73  A    between atoms: _211  and  _212
REMARK   74  A    between atoms: _211  and  _214
REMARK   75  A    between atoms: _214  and  _215
REMARK   76  A    between atoms: _220  and  _222
REMARK   77  A    between atoms: _222  and  _223
REMARK   78  A    between atoms: _222  and  _225
REMARK   79  A    between atoms: _225  and  _226
REMARK   80  A    between atoms: _232  and  _234
REMARK   81  A    between atoms: _234  and  _235
REMARK   82  A    between atoms: _234  and  _237
REMARK   83  A    between atoms: _240  and  _242
REMARK   84  A    between atoms: _242  and  _243
REMARK   85  A    between atoms: _242  and  _245
REMARK   86  A    between atoms: _245  and  _246
REMARK   87  A    between atoms: _249  and  _251
REMARK   88  A    between atoms: _251  and  _252
REMARK   89  A    between atoms: _255  and  _257
REMARK   90  A    between atoms: _257  and  _258
REMARK   91  A    between atoms: _257  and  _260
REMARK   92  A    between atoms: _263  and  _265
REMARK   93  A    between atoms: _265  and  _266
REMARK   94  A    between atoms: _265  and  _268
REMARK   95  A    between atoms: _268  and  _269
REMARK   96  A    between atoms: _272  and  _274
REMARK   97  A    between atoms: _274  and  _275
REMARK   98  A    between atoms: _277  and  _279
REMARK   99  A    between atoms: _279  and  _280
REMARK  100  A    between atoms: _279  and  _282
REMARK  101  A    between atoms: _282  and  _283
REMARK  102  A    between atoms: _285  and  _287
REMARK  103  A    between atoms: _287  and  _288
REMARK  104  A    between atoms: _287  and  _290
REMARK  105  A    between atoms: _290  and  _291
REMARK  106  A    between atoms: _294  and  _296
REMARK  107  A    between atoms: _296  and  _297
REMARK  108  A    between atoms: _296  and  _299
REMARK  109  A    between atoms: _299  and  _300
REMARK  110  A    between atoms: _303  and  _305
REMARK  111  A    between atoms: _305  and  _306
REMARK  112  A    between atoms: _305  and  _308
REMARK  113  A    between atoms: _308  and  _309
REMARK  114  A    between atoms: _313  and  _314
REMARK  115  A    between atoms: _320  and  _321
REMARK  116  A    between atoms: _326  and  _328
REMARK  117  A    between atoms: _328  and  _329
REMARK  118  A    between atoms: _328  and  _331
REMARK  119  A    between atoms: _331  and  _332
REMARK  120  A    between atoms: _335  and  _337
REMARK  121  A    between atoms: _337  and  _338
REMARK  122  A    between atoms: _337  and  _340
REMARK  123  A    between atoms: _340  and  _341
REMARK  124  A    between atoms: _344  and  _346
REMARK  125  A    between atoms: _346  and  _347
REMARK  126  A    between atoms: _346  and  _349
REMARK  127  A    between atoms: _351  and  _353
REMARK  128  A    between atoms: _353  and  _354
REMARK  129  A    between atoms: _353  and  _356
REMARK  130  A    between atoms: _359  and  _361
REMARK  131  A    between atoms: _361  and  _362
REMARK  132  A    between atoms: _361  and  _364
REMARK  133  A    between atoms: _364  and  _365
REMARK  134  A    between atoms: _375  and  _377
REMARK  135  A    between atoms: _377  and  _378
REMARK  136  A    between atoms: _377  and  _380
REMARK  137  A    between atoms: _380  and  _381
REMARK  138  A    between atoms: _386  and  _388
REMARK  139  A    between atoms: _388  and  _389
REMARK  140  A    between atoms: _388  and  _391
REMARK  141  A    between atoms: _391  and  _392
REMARK  142  A    between atoms: _392  and  _393
REMARK  143  A    between atoms: _393  and  _394
REMARK                            x       y       z     vdW  Elec       q    Type
REMARK                         _______ _______ _______ _____ _____    ______ ____
ROOT
ATOM      1  C   UNK A   4      10.364  -0.351  10.228  0.00  0.00    +0.000 C 
ATOM      2  C   UNK A   4      10.420   0.921  11.039  0.00  0.00    +0.000 C 
ATOM      3  O   UNK A   4      11.080   0.967  12.069  0.00  0.00    +0.000 OA
ATOM      4  N   VAL A   5       9.705   1.939  10.567  0.00  0.00    +0.000 N 
ATOM      5  CA  VAL A   5       9.656   3.240  11.235  0.00  0.00    +0.000 C 
ATOM      6  C   VAL A   5       8.215   3.683  11.424  0.00  0.00    +0.000 C 
ATOM      7  N   UNK A   6       8.049   4.631  12.341  0.00  0.00    +0.000 N 
ATOM      8  H   UNK A   6       8.833   4.819  12.998  0.00  0.00    +0.000 HD
ATOM      9  C   UNK A   6       6.830   5.425  12.481  0.00  0.00    +0.000 C 
ATOM     10  C   UNK A   6       6.173   5.193  13.835  0.00  0.00    +0.000 C 
ATOM     11  C   UNK A   6       5.893   3.747  14.101  0.00  0.00    +0.000 A 
ATOM     12  C   UNK A   6       6.711   2.744  14.509  0.00  0.00    +0.000 A 
ATOM     13  N   UNK A   6       5.957   1.598  14.551  0.00  0.00    +0.000 N 
ATOM     14 ZN   UNK A   6       6.738  -0.196  15.225  0.00  0.00    +0.000 Zn
ATOM     15  N   UNK A   4       7.499  -1.087  13.559  0.00  0.00    +0.000 N 
ATOM     16  C   UNK A   4       8.023  -2.294  13.404  0.00  0.00    +0.000 A 
ATOM     17  N   UNK A   4       8.577  -2.358  12.207  0.00  0.00    +0.000 NA
ATOM     18  C   UNK A   4       8.385  -1.156  11.558  0.00  0.00    +0.000 A 
ATOM     19  C   UNK A   4       7.703  -0.363  12.417  0.00  0.00    +0.000 A 
ATOM     20  C   UNK A   6       4.726   1.879  14.159  0.00  0.00    +0.000 A 
ATOM     21  N   UNK A   6       4.658   3.173  13.876  0.00  0.00    +0.000 NA
ATOM     22  O   VAL A   5       7.304   3.208  10.742  0.00  0.00    +0.000 OA
ATOM     23  H   VAL A   5       9.161   1.805   9.691  0.00  0.00    +0.000 HD
ATOM     24  C   UNK A   4       8.930  -0.888  10.194  0.00  0.00    +0.000 C 
ENDROOT
BRANCH  14  25
ATOM     25  N   UNK A   6       8.215   0.545  16.456  0.00  0.00    +0.000 N 
ATOM     26  C   UNK A   6       7.890   1.466  17.341  0.00  0.00    +0.000 A 
ATOM     27  N   UNK A   6       8.994   1.861  17.955  0.00  0.00    +0.000 NA
ATOM     28  C   UNK A   6      10.064   1.177  17.431  0.00  0.00    +0.000 A 
ATOM     29  C   UNK A   6       9.577   0.325  16.501  0.00  0.00    +0.000 A 
BRANCH  29  30
ATOM     30  C   UNK A   6      10.291  -0.645  15.624  0.00  0.00    +0.000 C 
BRANCH  30  31
ATOM     31  C   UNK A   6      11.797  -0.359  15.529  0.00  0.00    +0.000 C 
BRANCH  31  32
ATOM     32  C   UNK A   6      12.477  -1.509  14.833  0.00  0.00    +0.000 C 
ATOM     33  N   UNK A   4      13.480  -2.077  15.515  0.00  0.00    +0.000 N 
ATOM     34  H   UNK A   4      13.801  -1.628  16.396  0.00  0.00    +0.000 HD
ATOM     35  O   UNK A   6      12.097  -1.876  13.711  0.00  0.00    +0.000 OA
BRANCH  33  36
ATOM     36  C   UNK A   4      14.143  -3.305  15.070  0.00  0.00    +0.000 C 
BRANCH  36  37
ATOM     37  C   UNK A   4      13.529  -4.435  15.872  0.00  0.00    +0.000 C 
ATOM     38  O   UNK A   4      13.656  -4.465  17.089  0.00  0.00    +0.000 OA
ATOM     39  N   VAL A   5      12.796  -5.302  15.177  0.00  0.00    +0.000 N 
ATOM     40  H   VAL A   5      12.841  -5.274  14.138  0.00  0.00    +0.000 HD
BRANCH  39  41
ATOM     41  CA  VAL A   5      11.925  -6.298  15.818  0.00  0.00    +0.000 C 
BRANCH  41  42
ATOM     42  C   VAL A   5      12.631  -7.636  15.864  0.00  0.00    +0.000 C 
ATOM     43  N   UNK A   6      12.690  -8.238  17.061  0.00  0.00    +0.000 N 
ATOM     44  H   UNK A   6      12.228  -7.792  17.879  0.00  0.00    +0.000 HD
ATOM     45  O   VAL A   5      13.075  -8.123  14.804  0.00  0.00    +0.000 OA
BRANCH  43  46
ATOM     46  C   UNK A   6      13.396  -9.519  17.241  0.00  0.00    +0.000 C 
BRANCH  46  47
ATOM     47  C   UNK A   6      12.493 -10.478  17.981  0.00  0.00    +0.000 C 
ATOM     48  O   UNK A   6      11.728 -10.063  18.851  0.00  0.00    +0.000 OA
ENDBRANCH  46  47
BRANCH  46  49
ATOM     49  C   UNK A   6      14.654  -9.345  18.109  0.00  0.00    +0.000 C 
BRANCH  49  50
ATOM     50  C   UNK A   6      15.556  -8.226  17.684  0.00  0.00    +0.000 A 
ATOM     51  N   UNK A   6      15.259  -6.901  17.929  0.00  0.00    +0.000 NA
ATOM     52  C   UNK A   6      16.253  -6.146  17.483  0.00  0.00    +0.000 A 
ATOM     53  N   UNK A   6      17.174  -6.933  16.944  0.00  0.00    +0.000 NA
ATOM     54  C   UNK A   6      16.767  -8.241  17.074  0.00  0.00    +0.000 A 
ENDBRANCH  49  50
ENDBRANCH  46  49
ENDBRANCH  43  46
ENDBRANCH  41  42
BRANCH  41  55
ATOM     55  CB  VAL A   5      10.618  -6.447  15.027  0.00  0.00    +0.000 C 
ATOM     56  CG2 VAL A   5       9.696  -7.496  15.678  0.00  0.00    +0.000 C 
ATOM     57  CG1 VAL A   5       9.896  -5.099  14.854  0.00  0.00    +0.000 C 
ENDBRANCH  41  55
ENDBRANCH  39  41
ENDBRANCH  36  37
BRANCH  36  58
ATOM     58  C   UNK A   4      15.642  -3.204  15.299  0.00  0.00    +0.000 C 
BRANCH  58  59
ATOM     59  C   UNK A   4      16.358  -2.149  14.449  0.00  0.00    +0.000 C 
ATOM     60  C   UNK A   4      17.197  -1.205  15.309  0.00  0.00    +0.000 C 
ATOM     61  C   UNK A   4      17.221  -2.811  13.370  0.00  0.00    +0.000 C 
ENDBRANCH  58  59
ENDBRANCH  36  58
ENDBRANCH  33  36
ENDBRANCH  31  32
BRANCH  31  62
ATOM     62  N   UNK A   6      12.023   0.874  14.770  0.00  0.00    +0.000 N 
ATOM     63  C   LEU A   2      12.641   1.945  15.268  0.00  0.00    +0.000 C 
ATOM     64  O   LEU A   2      13.005   2.043  16.437  0.00  0.00    +0.000 OA
ATOM     65  H   UNK A   6      11.682   0.916  13.788  0.00  0.00    +0.000 HD
BRANCH  63  66
ATOM     66  CA  LEU A   2      12.876   3.095  14.281  0.00  0.00    +0.000 C 
BRANCH  66  67
ATOM     67  N   LEU A   2      12.499   4.353  14.886  0.00  0.00    +0.000 N 
ATOM     68  H   LEU A   2      13.221   4.865  15.433  0.00  0.00    +0.000 HD
ATOM     69  C   GLU A   1      11.287   4.900  14.789  0.00  0.00    +0.000 C 
ATOM     70  O   GLU A   1      10.387   4.475  14.065  0.00  0.00    +0.000 OA
BRANCH  69  71
ATOM     71  CA  GLU A   1      11.058   6.166  15.603  0.00  0.00    +0.000 C 
BRANCH  71  72
ATOM     72  N   GLU A   1      10.549   7.198  14.717  0.00  0.00    +0.000 NA
ATOM     73  H   GLU A   1       9.909   6.931  13.942  0.00  0.00    +0.000 HD
ENDBRANCH  71  72
BRANCH  71  74
ATOM     74  CB  GLU A   1      10.072   5.936  16.750  0.00  0.00    +0.000 C 
BRANCH  74  75
ATOM     75  CG  GLU A   1      10.607   5.002  17.852  0.00  0.00    +0.000 C 
BRANCH  75  76
ATOM     76  CD  GLU A   1       9.679   4.921  19.053  0.00  0.00    +0.000 C 
ATOM     77  OE2 GLU A   1       9.624   3.856  19.701  0.00  0.00    +0.000 OA
ATOM     78  OE1 GLU A   1       9.019   5.934  19.342  0.00  0.00    +0.000 OA
ENDBRANCH  75  76
ENDBRANCH  74  75
ENDBRANCH  71  74
ENDBRANCH  69  71
ENDBRANCH  66  67
BRANCH  66  79
ATOM     79  CB  LEU A   2      14.354   3.178  13.908  0.00  0.00    +0.000 C 
BRANCH  79  80
ATOM     80  CG  LEU A   2      15.115   1.897  13.554  0.00  0.00    +0.000 C 
ATOM     81  CD2 LEU A   2      16.574   2.221  13.328  0.00  0.00    +0.000 C 
ATOM     82  CD1 LEU A   2      14.542   1.228  12.325  0.00  0.00    +0.000 C 
ENDBRANCH  79  80
ENDBRANCH  66  79
ENDBRANCH  63  66
ENDBRANCH  31  62
ENDBRANCH  30  31
ENDBRANCH  29  30
ENDBRANCH  14  25
BRANCH   1  84
ATOM     83  C   UNK A   3      11.792  -2.345  10.162  0.00  0.00    +0.000 C 
ATOM     84  N   UNK A   4      11.265  -1.314  10.834  0.00  0.00    +0.000 N 
ATOM     85  H   UNK A   4      11.513  -1.198  11.837  0.00  0.00    +0.000 HD
ATOM     86  O   UNK A   3      11.564  -2.586   8.963  0.00  0.00    +0.000 OA
BRANCH  83  87
ATOM     87  C   UNK A   3      12.741  -3.196  10.982  0.00  0.00    +0.000 C 
BRANCH  87  90
ATOM     88  C   LEU A   2      12.685  -5.625  11.109  0.00  0.00    +0.000 C 
ATOM     89  O   LEU A   2      12.712  -5.655  12.330  0.00  0.00    +0.000 OA
ATOM     90  N   UNK A   3      12.897  -4.528  10.382  0.00  0.00    +0.000 N 
ATOM     91  H   UNK A   3      13.175  -4.616   9.384  0.00  0.00    +0.000 HD
BRANCH  88  92
ATOM     92  CA  LEU A   2      12.414  -6.897  10.338  0.00  0.00    +0.000 C 
BRANCH  92  94
ATOM     93  C   GLU A   1      12.827  -9.251  10.690  0.00  0.00    +0.000 C 
ATOM     94  N   LEU A   2      12.681  -8.031  11.213  0.00  0.00    +0.000 N 
ATOM     95  H   LEU A   2      12.758  -7.891  12.241  0.00  0.00    +0.000 HD
ATOM     96  O   GLU A   1      12.748  -9.461   9.478  0.00  0.00    +0.000 OA
BRANCH  93  97
ATOM     97  CA  GLU A   1      13.089 -10.398  11.669  0.00  0.00    +0.000 C 
BRANCH  97  98
ATOM     98  CB  GLU A   1      11.767 -11.038  12.201  0.00  0.00    +0.000 C 
ATOM     99  CG2 GLU A   1      11.094 -10.165  13.253  0.00  0.00    +0.000 C 
BRANCH  98 100
ATOM    100  CG1 GLU A   1      10.821 -11.405  11.049  0.00  0.00    +0.000 C 
ATOM    101  CD1 GLU A   1       9.663 -12.334  11.446  0.00  0.00    +0.000 C 
ENDBRANCH  98 100
ENDBRANCH  97  98
BRANCH  97 102
ATOM    102  N   GLU A   1      14.002 -10.024  12.748  0.00  0.00    +0.000 NA
ATOM    103  H   GLU A   1      13.658  -9.410  13.513  0.00  0.00    +0.000 HD
ENDBRANCH  97 102
ENDBRANCH  93  97
ENDBRANCH  92  94
BRANCH  92 104
ATOM    104  CB  LEU A   2      10.951  -6.920   9.815  0.00  0.00    +0.000 C 
BRANCH 104 105
ATOM    105  CG  LEU A   2       9.879  -7.040  10.926  0.00  0.00    +0.000 C 
BRANCH 105 106
ATOM    106  CD  LEU A   2       9.069  -5.795  11.200  0.00  0.00    +0.000 C 
ATOM    107  OE1 LEU A   2       7.870  -5.894  11.465  0.00  0.00    +0.000 OA
ATOM    108  NE2 LEU A   2       9.697  -4.644  11.176  0.00  0.00    +0.000 N 
ATOM    109 HE21 LEU A   2       9.181  -3.766  11.386  0.00  0.00    +0.000 HD
ATOM    110 HE22 LEU A   2      10.711  -4.609  10.947  0.00  0.00    +0.000 HD
ENDBRANCH 105 106
ENDBRANCH 104 105
ENDBRANCH  92 104
ENDBRANCH  88  92
ENDBRANCH  87  90
BRANCH  87 111
ATOM    111  C   UNK A   3      14.073  -2.482  11.237  0.00  0.00    +0.000 C 
BRANCH 111 112
ATOM    112  C   UNK A   3      14.817  -2.052   9.995  0.00  0.00    +0.000 A 
ATOM    113  C   UNK A   3      15.934  -2.771   9.549  0.00  0.00    +0.000 A 
ATOM    114  C   UNK A   3      16.636  -2.355   8.419  0.00  0.00    +0.000 A 
ATOM    115  C   UNK A   3      16.240  -1.212   7.729  0.00  0.00    +0.000 A 
ATOM    116  C   UNK A   3      15.128  -0.489   8.172  0.00  0.00    +0.000 A 
ATOM    117  C   UNK A   3      14.435  -0.908   9.301  0.00  0.00    +0.000 A 
ENDBRANCH 111 112
ENDBRANCH  87 111
ENDBRANCH  83  87
ENDBRANCH   1  84
BRANCH   9 118
ATOM    118  C   UNK A   6       7.278   6.860  12.368  0.00  0.00    +0.000 C 
ATOM    119  O   UNK A   6       8.328   7.222  12.894  0.00  0.00    +0.000 OA
ENDBRANCH   9 118
BRANCH   5 120
ATOM    120  CB  VAL A   5      10.368   4.317  10.391  0.00  0.00    +0.000 C 
BRANCH 120 121
ATOM    121  CG  VAL A   5      11.810   4.011  10.053  0.00  0.00    +0.000 A 
ATOM    122  CD2 VAL A   5      12.841   4.645  10.737  0.00  0.00    +0.000 A 
ATOM    123  CE2 VAL A   5      14.171   4.391  10.412  0.00  0.00    +0.000 A 
ATOM    124  CZ  VAL A   5      14.480   3.527   9.367  0.00  0.00    +0.000 A 
ATOM    125  CE1 VAL A   5      13.474   2.911   8.652  0.00  0.00    +0.000 A 
ATOM    126  CD1 VAL A   5      12.133   3.157   8.992  0.00  0.00    +0.000 A 
ENDBRANCH 120 121
ENDBRANCH   5 120
TORSDOF 42
REMARK  Name = ../refined-set-2016/2weo/2weo_pocket.pdb
REMARK  143 active torsions:
REMARK  status: ('A' for Active; 'I' for Inactive)
REMARK    1  A    between atoms: _1  and  _3
REMARK    2  A    between atoms: _3  and  _4
REMARK    3  A    between atoms: _3  and  _6
REMARK    4  A    between atoms: _6  and  _7
REMARK    5  A    between atoms: _17  and  _19
REMARK    6  A    between atoms: _19  and  _20
REMARK    7  A    between atoms: _19  and  _22
REMARK    8  A    between atoms: _22  and  _23
REMARK    9  A    between atoms: _28  and  _29
REMARK   10  A    between atoms: _31  and  _33
REMARK   11  A    between atoms: _33  and  _34
REMARK   12  A    between atoms: _33  and  _36
REMARK   13  A    between atoms: _36  and  _37
REMARK   14  A    between atoms: _40  and  _41
REMARK   15  A    between atoms: _46  and  _48
REMARK   16  A    between atoms: _48  and  _49
REMARK   17  A    between atoms: _48  and  _51
REMARK   18  A    between atoms: _51  and  _52
REMARK   19  A    between atoms: _57  and  _59
REMARK   20  A    between atoms: _59  and  _60
REMARK   21  A    between atoms: _63  and  _65
REMARK   22  A    between atoms: _65  and  _66
REMARK   23  A    between atoms: _65  and  _68
REMARK   24  A    between atoms: _68  and  _69
REMARK   25  A    between atoms: _74  and  _76
REMARK   26  A    between atoms: _76  and  _77
REMARK   27  A    between atoms: _76  and  _79
REMARK   28  A    between atoms: _79  and  _80
REMARK   29  A    between atoms: _83  and  _85
REMARK   30  A    between atoms: _85  and  _86
REMARK   31  A    between atoms: _85  and  _88
REMARK   32  A    between atoms: _88  and  _89
REMARK   33  A    between atoms: _89  and  _90
REMARK   34  A    between atoms: _95  and  _97
REMARK   35  A    between atoms: _97  and  _98
REMARK   36  A    between atoms: _97  and  _100
REMARK   37  A    between atoms: _100  and  _101
REMARK   38  A    between atoms: _107  and  _109
REMARK   39  A    between atoms: _120  and  _123
REMARK   40  A    between atoms: _123  and  _124
REMARK   41  A    between atoms: _132  and  _133
REMARK   42  A    between atoms: _141  and  _143
REMARK   43  A    between atoms: _143  and  _144
REMARK   44  A    between atoms: _143  and  _146
REMARK   45  A    between atoms: _146  and  _147
REMARK   46  A    between atoms: _147  and  _148
REMARK   47  A    between atoms: _151  and  _153
REMARK   48  A    between atoms: _153  and  _154
REMARK   49  A    between atoms: _153  and  _156
REMARK   50  A    between atoms: _156  and  _157
REMARK   51  A    between atoms: _162  and  _164
REMARK   52  A    between atoms: _164  and  _165
REMARK   53  A    between atoms: _164  and  _167
REMARK   54  A    between atoms: _167  and  _168
REMARK   55  A    between atoms: _168  and  _169
REMARK   56  A    between atoms: _172  and  _174
REMARK   57  A    between atoms: _174  and  _175
REMARK   58  A    between atoms: _174  and  _177
REMARK   59  A    between atoms: _177  and  _178
REMARK   60  A    between atoms: _181  and  _183
REMARK   61  A    between atoms: _183  and  _184
REMARK   62  A    between atoms: _183  and  _186
REMARK   63  A    between atoms: _186  and  _187
REMARK   64  A    between atoms: _188  and  ZN_403
REMARK   65  A    between atoms: _192  and  _194
REMARK   66  A    between atoms: _194  and  _195
REMARK   67  A    between atoms: _194  and  _197
REMARK   68  A    between atoms: _197  and  _198
REMARK   69  A    between atoms: _201  and  _203
REMARK   70  A    between atoms: _203  and  _204
REMARK   71  A    between atoms: _203  and  _206
REMARK   72  A    between atoms: _209  and  _211
REMARK   73  A    between atoms: _211  and  _212
REMARK   74  A    between atoms: _211  and  _214
REMARK   75  A    between atoms: _214  and  _215
REMARK   76  A    between atoms: _220  and  _222
REMARK   77  A    between atoms: _222  and  _223
REMARK   78  A    between atoms: _222  and  _225
REMARK   79  A    between atoms: _225  and  _226
REMARK   80  A    between atoms: _232  and  _234
REMARK   81  A    between atoms: _234  and  _235
REMARK   82  A    between atoms: _234  and  _237
REMARK   83  A    between atoms: _240  and  _242
REMARK   84  A    between atoms: _242  and  _243
REMARK   85  A    between atoms: _242  and  _245
REMARK   86  A    between atoms: _245  and  _246
REMARK   87  A    between atoms: _249  and  _251
REMARK   88  A    between atoms: _251  and  _252
REMARK   89  A    between atoms: _255  and  _257
REMARK   90  A    between atoms: _257  and  _258
REMARK   91  A    between atoms: _257  and  _260
REMARK   92  A    between atoms: _263  and  _265
REMARK   93  A    between atoms: _265  and  _266
REMARK   94  A    between atoms: _265  and  _268
REMARK   95  A    between atoms: _268  and  _269
REMARK   96  A    between atoms: _272  and  _274
REMARK   97  A    between atoms: _274  and  _275
REMARK   98  A    between atoms: _277  and  _279
REMARK   99  A    between atoms: _279  and  _280
REMARK  100  A    between atoms: _279  and  _282
REMARK  101  A    between atoms: _282  and  _283
REMARK  102  A    between atoms: _285  and  _287
REMARK  103  A    between atoms: _287  and  _288
REMARK  104  A    between atoms: _287  and  _290
REMARK  105  A    between atoms: _290  and  _291
REMARK  106  A    between atoms: _294  and  _296
REMARK  107  A    between atoms: _296  and  _297
REMARK  108  A    between atoms: _296  and  _299
REMARK  109  A    between atoms: _299  and  _300
REMARK  110  A    between atoms: _303  and  _305
REMARK  111  A    between atoms: _305  and  _306
REMARK  112  A    between atoms: _305  and  _308
REMARK  113  A    between atoms: _308  and  _309
REMARK  114  A    between atoms: _313  and  _314
REMARK  115  A    between atoms: _320  and  _321
REMARK  116  A    between atoms: _326  and  _328
REMARK  117  A    between atoms: _328  and  _329
REMARK  118  A    between atoms: _328  and  _331
REMARK  119  A    between atoms: _331  and  _332
REMARK  120  A    between atoms: _335  and  _337
REMARK  121  A    between atoms: _337  and  _338
REMARK  122  A    between atoms: _337  and  _340
REMARK  123  A    between atoms: _340  and  _341
REMARK  124  A    between atoms: _344  and  _346
REMARK  125  A    between atoms: _346  and  _347
REMARK  126  A    between atoms: _346  and  _349
REMARK  127  A    between atoms: _351  and  _353
REMARK  128  A    between atoms: _353  and  _354
REMARK  129  A    between atoms: _353  and  _356
REMARK  130  A    between atoms: _359  and  _361
REMARK  131  A    between atoms: _361  and  _362
REMARK  132  A    between atoms: _361  and  _364
REMARK  133  A    between atoms: _364  and  _365
REMARK  134  A    between atoms: _375  and  _377
REMARK  135  A    between atoms: _377  and  _378
REMARK  136  A    between atoms: _377  and  _380
REMARK  137  A    between atoms: _380  and  _381
REMARK  138  A    between atoms: _386  and  _388
REMARK  139  A    between atoms: _388  and  _389
REMARK  140  A    between atoms: _388  and  _391
REMARK  141  A    between atoms: _391  and  _392
REMARK  142  A    between atoms: _392  and  _393
REMARK  143  A    between atoms: _393  and  _394
REMARK                            x       y       z     vdW  Elec       q    Type
REMARK                         _______ _______ _______ _____ _____    ______ ____
ROOT
ATOM      1  C   GLU A   1       5.879   6.742  20.933  0.00  0.00    +0.238 C 
ATOM      2  O   GLU A   1       5.079   7.296  21.694  0.00  0.00    -0.274 OA
ATOM      3  N   HIS A   2       7.054   6.302  21.349  0.00  0.00    -0.298 N 
ATOM      4  H   HIS A   2       7.637   5.699  20.734  0.00  0.00    +0.150 HD
ENDROOT
BRANCH   1   5
ATOM      5  CA  GLU A   1       5.557   6.553  19.452  0.00  0.00    +0.145 C 
BRANCH   5   6
ATOM      6  N   GLU A   1       6.589   7.235  18.687  0.00  0.00    -0.238 NA
ATOM      7  H   GLU A   1       7.479   6.734  18.490  0.00  0.00    +0.142 HD
ENDBRANCH   5   6
BRANCH   5   8
ATOM      8  CB  GLU A   1       5.498   5.079  19.034  0.00  0.00    +0.038 C 
BRANCH   8   9
ATOM      9  CG  GLU A   1       5.107   4.951  17.564  0.00  0.00    +0.116 C 
BRANCH   9  10
ATOM     10  CD  GLU A   1       4.401   3.666  17.271  0.00  0.00    +0.365 C 
ATOM     11  OE2 GLU A   1       4.989   2.588  17.460  0.00  0.00    -0.246 OA
ATOM     12  OE1 GLU A   1       3.220   3.722  16.872  0.00  0.00    -0.246 OA
ENDBRANCH   9  10
ENDBRANCH   8   9
ENDBRANCH   5   8
ENDBRANCH   1   5
BRANCH   3  13
ATOM     13  CA  HIS A   2       7.524   6.670  22.676  0.00  0.00    +0.143 C 
BRANCH  13  14
ATOM     14  C   HIS A   2       7.828   8.148  22.702  0.00  0.00    +0.227 C 
ATOM     15  O   HIS A   2       8.150   8.758  21.674  0.00  0.00    -0.286 OA
ENDBRANCH  13  14
BRANCH  13  16
ATOM     16  CB  HIS A   2       8.758   5.854  23.049  0.00  0.00    +0.075 C 
BRANCH  16  17
ATOM     17  CG  HIS A   2       8.450   4.406  23.226  0.00  0.00    +0.082 A 
ATOM     18  CD2 HIS A   2       8.016   3.722  24.312  0.00  0.00    +0.115 A 
ATOM     19  NE2 HIS A   2       7.819   2.421  23.922  0.00  0.00    -0.221 NA
ATOM     20  CE1 HIS A   2       8.136   2.309  22.640  0.00  0.00    +0.199 A 
ATOM     21  ND1 HIS A   2       8.512   3.496  22.193  0.00  0.00    -0.227 NA
ENDBRANCH  16  17
ENDBRANCH  13  16
ENDBRANCH   3  13
TORSDOF 9
REMARK  Name = ../refined-set-2016/2weo/2weo_pocket.pdb
REMARK  143 active torsions:
REMARK  status: ('A' for Active; 'I' for Inactive)
REMARK    1  A    between atoms: _1  and  _3
REMARK    2  A    between atoms: _3  and  _4
REMARK    3  A    between atoms: _3  and  _6
REMARK    4  A    between atoms: _6  and  _7
REMARK    5  A    between atoms: _17  and  _19
REMARK    6  A    between atoms: _19  and  _20
REMARK    7  A    between atoms: _19  and  _22
REMARK    8  A    between atoms: _22  and  _23
REMARK    9  A    between atoms: _28  and  _29
REMARK   10  A    between atoms: _31  and  _33
REMARK   11  A    between atoms: _33  and  _34
REMARK   12  A    between atoms: _33  and  _36
REMARK   13  A    between atoms: _36  and  _37
REMARK   14  A    between atoms: _40  and  _41
REMARK   15  A    between atoms: _46  and  _48
REMARK   16  A    between atoms: _48  and  _49
REMARK   17  A    between atoms: _48  and  _51
REMARK   18  A    between atoms: _51  and  _52
REMARK   19  A    between atoms: _57  and  _59
REMARK   20  A    between atoms: _59  and  _60
REMARK   21  A    between atoms: _63  and  _65
REMARK   22  A    between atoms: _65  and  _66
REMARK   23  A    between atoms: _65  and  _68
REMARK   24  A    between atoms: _68  and  _69
REMARK   25  A    between atoms: _74  and  _76
REMARK   26  A    between atoms: _76  and  _77
REMARK   27  A    between atoms: _76  and  _79
REMARK   28  A    between atoms: _79  and  _80
REMARK   29  A    between atoms: _83  and  _85
REMARK   30  A    between atoms: _85  and  _86
REMARK   31  A    between atoms: _85  and  _88
REMARK   32  A    between atoms: _88  and  _89
REMARK   33  A    between atoms: _89  and  _90
REMARK   34  A    between atoms: _95  and  _97
REMARK   35  A    between atoms: _97  and  _98
REMARK   36  A    between atoms: _97  and  _100
REMARK   37  A    between atoms: _100  and  _101
REMARK   38  A    between atoms: _107  and  _109
REMARK   39  A    between atoms: _120  and  _123
REMARK   40  A    between atoms: _123  and  _124
REMARK   41  A    between atoms: _132  and  _133
REMARK   42  A    between atoms: _141  and  _143
REMARK   43  A    between atoms: _143  and  _144
REMARK   44  A    between atoms: _143  and  _146
REMARK   45  A    between atoms: _146  and  _147
REMARK   46  A    between atoms: _147  and  _148
REMARK   47  A    between atoms: _151  and  _153
REMARK   48  A    between atoms: _153  and  _154
REMARK   49  A    between atoms: _153  and  _156
REMARK   50  A    between atoms: _156  and  _157
REMARK   51  A    between atoms: _162  and  _164
REMARK   52  A    between atoms: _164  and  _165
REMARK   53  A    between atoms: _164  and  _167
REMARK   54  A    between atoms: _167  and  _168
REMARK   55  A    between atoms: _168  and  _169
REMARK   56  A    between atoms: _172  and  _174
REMARK   57  A    between atoms: _174  and  _175
REMARK   58  A    between atoms: _174  and  _177
REMARK   59  A    between atoms: _177  and  _178
REMARK   60  A    between atoms: _181  and  _183
REMARK   61  A    between atoms: _183  and  _184
REMARK   62  A    between atoms: _183  and  _186
REMARK   63  A    between atoms: _186  and  _187
REMARK   64  A    between atoms: _188  and  ZN_403
REMARK   65  A    between atoms: _192  and  _194
REMARK   66  A    between atoms: _194  and  _195
REMARK   67  A    between atoms: _194  and  _197
REMARK   68  A    between atoms: _197  and  _198
REMARK   69  A    between atoms: _201  and  _203
REMARK   70  A    between atoms: _203  and  _204
REMARK   71  A    between atoms: _203  and  _206
REMARK   72  A    between atoms: _209  and  _211
REMARK   73  A    between atoms: _211  and  _212
REMARK   74  A    between atoms: _211  and  _214
REMARK   75  A    between atoms: _214  and  _215
REMARK   76  A    between atoms: _220  and  _222
REMARK   77  A    between atoms: _222  and  _223
REMARK   78  A    between atoms: _222  and  _225
REMARK   79  A    between atoms: _225  and  _226
REMARK   80  A    between atoms: _232  and  _234
REMARK   81  A    between atoms: _234  and  _235
REMARK   82  A    between atoms: _234  and  _237
REMARK   83  A    between atoms: _240  and  _242
REMARK   84  A    between atoms: _242  and  _243
REMARK   85  A    between atoms: _242  and  _245
REMARK   86  A    between atoms: _245  and  _246
REMARK   87  A    between atoms: _249  and  _251
REMARK   88  A    between atoms: _251  and  _252
REMARK   89  A    between atoms: _255  and  _257
REMARK   90  A    between atoms: _257  and  _258
REMARK   91  A    between atoms: _257  and  _260
REMARK   92  A    between atoms: _263  and  _265
REMARK   93  A    between atoms: _265  and  _266
REMARK   94  A    between atoms: _265  and  _268
REMARK   95  A    between atoms: _268  and  _269
REMARK   96  A    between atoms: _272  and  _274
REMARK   97  A    between atoms: _274  and  _275
REMARK   98  A    between atoms: _277  and  _279
REMARK   99  A    between atoms: _279  and  _280
REMARK  100  A    between atoms: _279  and  _282
REMARK  101  A    between atoms: _282  and  _283
REMARK  102  A    between atoms: _285  and  _287
REMARK  103  A    between atoms: _287  and  _288
REMARK  104  A    between atoms: _287  and  _290
REMARK  105  A    between atoms: _290  and  _291
REMARK  106  A    between atoms: _294  and  _296
REMARK  107  A    between atoms: _296  and  _297
REMARK  108  A    between atoms: _296  and  _299
REMARK  109  A    between atoms: _299  and  _300
REMARK  110  A    between atoms: _303  and  _305
REMARK  111  A    between atoms: _305  and  _306
REMARK  112  A    between atoms: _305  and  _308
REMARK  113  A    between atoms: _308  and  _309
REMARK  114  A    between atoms: _313  and  _314
REMARK  115  A    between atoms: _320  and  _321
REMARK  116  A    between atoms: _326  and  _328
REMARK  117  A    between atoms: _328  and  _329
REMARK  118  A    between atoms: _328  and  _331
REMARK  119  A    between atoms: _331  and  _332
REMARK  120  A    between atoms: _335  and  _337
REMARK  121  A    between atoms: _337  and  _338
REMARK  122  A    between atoms: _337  and  _340
REMARK  123  A    between atoms: _340  and  _341
REMARK  124  A    between atoms: _344  and  _346
REMARK  125  A    between atoms: _346  and  _347
REMARK  126  A    between atoms: _346  and  _349
REMARK  127  A    between atoms: _351  and  _353
REMARK  128  A    between atoms: _353  and  _354
REMARK  129  A    between atoms: _353  and  _356
REMARK  130  A    between atoms: _359  and  _361
REMARK  131  A    between atoms: _361  and  _362
REMARK  132  A    between atoms: _361  and  _364
REMARK  133  A    between atoms: _364  and  _365
REMARK  134  A    between atoms: _375  and  _377
REMARK  135  A    between atoms: _377  and  _378
REMARK  136  A    between atoms: _377  and  _380
REMARK  137  A    between atoms: _380  and  _381
REMARK  138  A    between atoms: _386  and  _388
REMARK  139  A    between atoms: _388  and  _389
REMARK  140  A    between atoms: _388  and  _391
REMARK  141  A    between atoms: _391  and  _392
REMARK  142  A    between atoms: _392  and  _393
REMARK  143  A    between atoms: _393  and  _394
REMARK                            x       y       z     vdW  Elec       q    Type
REMARK                         _______ _______ _______ _____ _____    ______ ____
ROOT
ATOM      1  CB  PHE A   1       7.779 -14.352  13.941  0.00  0.00    +0.051 C 
ENDROOT
BRANCH   1   2
ATOM      2  CG  PHE A   1       7.167 -13.010  14.211  0.00  0.00    -0.020 A 
ATOM      3  CD2 PHE A   1       7.877 -12.022  14.898  0.00  0.00    -0.004 A 
ATOM      4  CE2 PHE A   1       7.312 -10.783  15.136  0.00  0.00    -0.000 A 
ATOM      5  CZ  PHE A   1       6.041 -10.516  14.705  0.00  0.00    -0.000 A 
ATOM      6  CE1 PHE A   1       5.314 -11.486  14.027  0.00  0.00    -0.000 A 
ATOM      7  CD1 PHE A   1       5.880 -12.719  13.779  0.00  0.00    -0.004 A 
ENDBRANCH   1   2
BRANCH   1   8
ATOM      8  CA  PHE A   1       7.660 -15.337  15.113  0.00  0.00    +0.137 C 
BRANCH   8   9
ATOM      9  N   PHE A   1       8.232 -16.616  14.725  0.00  0.00    -0.239 NA
ATOM     10  H   PHE A   1       8.588 -16.729  13.754  0.00  0.00    +0.142 HD
ENDBRANCH   8   9
BRANCH   8  11
ATOM     11  C   PHE A   1       6.204 -15.482  15.529  0.00  0.00    +0.224 C 
ATOM     12  O   PHE A   1       5.789 -14.877  16.511  0.00  0.00    -0.287 OA
ENDBRANCH   8  11
ENDBRANCH   1   8
TORSDOF 4
REMARK  Name = ../refined-set-2016/2weo/2weo_pocket.pdb
REMARK  143 active torsions:
REMARK  status: ('A' for Active; 'I' for Inactive)
REMARK    1  A    between atoms: _1  and  _3
REMARK    2  A    between atoms: _3  and  _4
REMARK    3  A    between atoms: _3  and  _6
REMARK    4  A    between atoms: _6  and  _7
REMARK    5  A    between atoms: _17  and  _19
REMARK    6  A    between atoms: _19  and  _20
REMARK    7  A    between atoms: _19  and  _22
REMARK    8  A    between atoms: _22  and  _23
REMARK    9  A    between atoms: _28  and  _29
REMARK   10  A    between atoms: _31  and  _33
REMARK   11  A    between atoms: _33  and  _34
REMARK   12  A    between atoms: _33  and  _36
REMARK   13  A    between atoms: _36  and  _37
REMARK   14  A    between atoms: _40  and  _41
REMARK   15  A    between atoms: _46  and  _48
REMARK   16  A    between atoms: _48  and  _49
REMARK   17  A    between atoms: _48  and  _51
REMARK   18  A    between atoms: _51  and  _52
REMARK   19  A    between atoms: _57  and  _59
REMARK   20  A    between atoms: _59  and  _60
REMARK   21  A    between atoms: _63  and  _65
REMARK   22  A    between atoms: _65  and  _66
REMARK   23  A    between atoms: _65  and  _68
REMARK   24  A    between atoms: _68  and  _69
REMARK   25  A    between atoms: _74  and  _76
REMARK   26  A    between atoms: _76  and  _77
REMARK   27  A    between atoms: _76  and  _79
REMARK   28  A    between atoms: _79  and  _80
REMARK   29  A    between atoms: _83  and  _85
REMARK   30  A    between atoms: _85  and  _86
REMARK   31  A    between atoms: _85  and  _88
REMARK   32  A    between atoms: _88  and  _89
REMARK   33  A    between atoms: _89  and  _90
REMARK   34  A    between atoms: _95  and  _97
REMARK   35  A    between atoms: _97  and  _98
REMARK   36  A    between atoms: _97  and  _100
REMARK   37  A    between atoms: _100  and  _101
REMARK   38  A    between atoms: _107  and  _109
REMARK   39  A    between atoms: _120  and  _123
REMARK   40  A    between atoms: _123  and  _124
REMARK   41  A    between atoms: _132  and  _133
REMARK   42  A    between atoms: _141  and  _143
REMARK   43  A    between atoms: _143  and  _144
REMARK   44  A    between atoms: _143  and  _146
REMARK   45  A    between atoms: _146  and  _147
REMARK   46  A    between atoms: _147  and  _148
REMARK   47  A    between atoms: _151  and  _153
REMARK   48  A    between atoms: _153  and  _154
REMARK   49  A    between atoms: _153  and  _156
REMARK   50  A    between atoms: _156  and  _157
REMARK   51  A    between atoms: _162  and  _164
REMARK   52  A    between atoms: _164  and  _165
REMARK   53  A    between atoms: _164  and  _167
REMARK   54  A    between atoms: _167  and  _168
REMARK   55  A    between atoms: _168  and  _169
REMARK   56  A    between atoms: _172  and  _174
REMARK   57  A    between atoms: _174  and  _175
REMARK   58  A    between atoms: _174  and  _177
REMARK   59  A    between atoms: _177  and  _178
REMARK   60  A    between atoms: _181  and  _183
REMARK   61  A    between atoms: _183  and  _184
REMARK   62  A    between atoms: _183  and  _186
REMARK   63  A    between atoms: _186  and  _187
REMARK   64  A    between atoms: _188  and  ZN_403
REMARK   65  A    between atoms: _192  and  _194
REMARK   66  A    between atoms: _194  and  _195
REMARK   67  A    between atoms: _194  and  _197
REMARK   68  A    between atoms: _197  and  _198
REMARK   69  A    between atoms: _201  and  _203
REMARK   70  A    between atoms: _203  and  _204
REMARK   71  A    between atoms: _203  and  _206
REMARK   72  A    between atoms: _209  and  _211
REMARK   73  A    between atoms: _211  and  _212
REMARK   74  A    between atoms: _211  and  _214
REMARK   75  A    between atoms: _214  and  _215
REMARK   76  A    between atoms: _220  and  _222
REMARK   77  A    between atoms: _222  and  _223
REMARK   78  A    between atoms: _222  and  _225
REMARK   79  A    between atoms: _225  and  _226
REMARK   80  A    between atoms: _232  and  _234
REMARK   81  A    between atoms: _234  and  _235
REMARK   82  A    between atoms: _234  and  _237
REMARK   83  A    between atoms: _240  and  _242
REMARK   84  A    between atoms: _242  and  _243
REMARK   85  A    between atoms: _242  and  _245
REMARK   86  A    between atoms: _245  and  _246
REMARK   87  A    between atoms: _249  and  _251
REMARK   88  A    between atoms: _251  and  _252
REMARK   89  A    between atoms: _255  and  _257
REMARK   90  A    between atoms: _257  and  _258
REMARK   91  A    between atoms: _257  and  _260
REMARK   92  A    between atoms: _263  and  _265
REMARK   93  A    between atoms: _265  and  _266
REMARK   94  A    between atoms: _265  and  _268
REMARK   95  A    between atoms: _268  and  _269
REMARK   96  A    between atoms: _272  and  _274
REMARK   97  A    between atoms: _274  and  _275
REMARK   98  A    between atoms: _277  and  _279
REMARK   99  A    between atoms: _279  and  _280
REMARK  100  A    between atoms: _279  and  _282
REMARK  101  A    between atoms: _282  and  _283
REMARK  102  A    between atoms: _285  and  _287
REMARK  103  A    between atoms: _287  and  _288
REMARK  104  A    between atoms: _287  and  _290
REMARK  105  A    between atoms: _290  and  _291
REMARK  106  A    between atoms: _294  and  _296
REMARK  107  A    between atoms: _296  and  _297
REMARK  108  A    between atoms: _296  and  _299
REMARK  109  A    between atoms: _299  and  _300
REMARK  110  A    between atoms: _303  and  _305
REMARK  111  A    between atoms: _305  and  _306
REMARK  112  A    between atoms: _305  and  _308
REMARK  113  A    between atoms: _308  and  _309
REMARK  114  A    between atoms: _313  and  _314
REMARK  115  A    between atoms: _320  and  _321
REMARK  116  A    between atoms: _326  and  _328
REMARK  117  A    between atoms: _328  and  _329
REMARK  118  A    between atoms: _328  and  _331
REMARK  119  A    between atoms: _331  and  _332
REMARK  120  A    between atoms: _335  and  _337
REMARK  121  A    between atoms: _337  and  _338
REMARK  122  A    between atoms: _337  and  _340
REMARK  123  A    between atoms: _340  and  _341
REMARK  124  A    between atoms: _344  and  _346
REMARK  125  A    between atoms: _346  and  _347
REMARK  126  A    between atoms: _346  and  _349
REMARK  127  A    between atoms: _351  and  _353
REMARK  128  A    between atoms: _353  and  _354
REMARK  129  A    between atoms: _353  and  _356
REMARK  130  A    between atoms: _359  and  _361
REMARK  131  A    between atoms: _361  and  _362
REMARK  132  A    between atoms: _361  and  _364
REMARK  133  A    between atoms: _364  and  _365
REMARK  134  A    between atoms: _375  and  _377
REMARK  135  A    between atoms: _377  and  _378
REMARK  136  A    between atoms: _377  and  _380
REMARK  137  A    between atoms: _380  and  _381
REMARK  138  A    between atoms: _386  and  _388
REMARK  139  A    between atoms: _388  and  _389
REMARK  140  A    between atoms: _388  and  _391
REMARK  141  A    between atoms: _391  and  _392
REMARK  142  A    between atoms: _392  and  _393
REMARK  143  A    between atoms: _393  and  _394
REMARK                            x       y       z     vdW  Elec       q    Type
REMARK                         _______ _______ _______ _____ _____    ______ ____
ROOT
ATOM      1  CA  VAL A   1       3.940 -13.124  19.734  0.00  0.00    +0.133 C 
ENDROOT
BRANCH   1   2
ATOM      2  CB  VAL A   1       3.299 -12.431  18.499  0.00  0.00    +0.023 C 
ATOM      3  CG2 VAL A   1       2.425 -13.397  17.679  0.00  0.00    +0.002 C 
ATOM      4  CG1 VAL A   1       4.373 -11.866  17.636  0.00  0.00    +0.002 C 
ENDBRANCH   1   2
BRANCH   1   5
ATOM      5  N   VAL A   1       4.866 -14.224  19.385  0.00  0.00    -0.239 NA
ATOM      6  H   VAL A   1       4.865 -14.618  18.422  0.00  0.00    +0.142 HD
ENDBRANCH   1   5
BRANCH   1   7
ATOM      7  C   VAL A   1       2.839 -13.540  20.704  0.00  0.00    +0.224 C 
ATOM      8  O   VAL A   1       2.129 -12.682  21.252  0.00  0.00    -0.287 OA
ENDBRANCH   1   7
TORSDOF 3
REMARK  Name = ../refined-set-2016/2weo/2weo_pocket.pdb
REMARK  143 active torsions:
REMARK  status: ('A' for Active; 'I' for Inactive)
REMARK    1  A    between atoms: _1  and  _3
REMARK    2  A    between atoms: _3  and  _4
REMARK    3  A    between atoms: _3  and  _6
REMARK    4  A    between atoms: _6  and  _7
REMARK    5  A    between atoms: _17  and  _19
REMARK    6  A    between atoms: _19  and  _20
REMARK    7  A    between atoms: _19  and  _22
REMARK    8  A    between atoms: _22  and  _23
REMARK    9  A    between atoms: _28  and  _29
REMARK   10  A    between atoms: _31  and  _33
REMARK   11  A    between atoms: _33  and  _34
REMARK   12  A    between atoms: _33  and  _36
REMARK   13  A    between atoms: _36  and  _37
REMARK   14  A    between atoms: _40  and  _41
REMARK   15  A    between atoms: _46  and  _48
REMARK   16  A    between atoms: _48  and  _49
REMARK   17  A    between atoms: _48  and  _51
REMARK   18  A    between atoms: _51  and  _52
REMARK   19  A    between atoms: _57  and  _59
REMARK   20  A    between atoms: _59  and  _60
REMARK   21  A    between atoms: _63  and  _65
REMARK   22  A    between atoms: _65  and  _66
REMARK   23  A    between atoms: _65  and  _68
REMARK   24  A    between atoms: _68  and  _69
REMARK   25  A    between atoms: _74  and  _76
REMARK   26  A    between atoms: _76  and  _77
REMARK   27  A    between atoms: _76  and  _79
REMARK   28  A    between atoms: _79  and  _80
REMARK   29  A    between atoms: _83  and  _85
REMARK   30  A    between atoms: _85  and  _86
REMARK   31  A    between atoms: _85  and  _88
REMARK   32  A    between atoms: _88  and  _89
REMARK   33  A    between atoms: _89  and  _90
REMARK   34  A    between atoms: _95  and  _97
REMARK   35  A    between atoms: _97  and  _98
REMARK   36  A    between atoms: _97  and  _100
REMARK   37  A    between atoms: _100  and  _101
REMARK   38  A    between atoms: _107  and  _109
REMARK   39  A    between atoms: _120  and  _123
REMARK   40  A    between atoms: _123  and  _124
REMARK   41  A    between atoms: _132  and  _133
REMARK   42  A    between atoms: _141  and  _143
REMARK   43  A    between atoms: _143  and  _144
REMARK   44  A    between atoms: _143  and  _146
REMARK   45  A    between atoms: _146  and  _147
REMARK   46  A    between atoms: _147  and  _148
REMARK   47  A    between atoms: _151  and  _153
REMARK   48  A    between atoms: _153  and  _154
REMARK   49  A    between atoms: _153  and  _156
REMARK   50  A    between atoms: _156  and  _157
REMARK   51  A    between atoms: _162  and  _164
REMARK   52  A    between atoms: _164  and  _165
REMARK   53  A    between atoms: _164  and  _167
REMARK   54  A    between atoms: _167  and  _168
REMARK   55  A    between atoms: _168  and  _169
REMARK   56  A    between atoms: _172  and  _174
REMARK   57  A    between atoms: _174  and  _175
REMARK   58  A    between atoms: _174  and  _177
REMARK   59  A    between atoms: _177  and  _178
REMARK   60  A    between atoms: _181  and  _183
REMARK   61  A    between atoms: _183  and  _184
REMARK   62  A    between atoms: _183  and  _186
REMARK   63  A    between atoms: _186  and  _187
REMARK   64  A    between atoms: _188  and  ZN_403
REMARK   65  A    between atoms: _192  and  _194
REMARK   66  A    between atoms: _194  and  _195
REMARK   67  A    between atoms: _194  and  _197
REMARK   68  A    between atoms: _197  and  _198
REMARK   69  A    between atoms: _201  and  _203
REMARK   70  A    between atoms: _203  and  _204
REMARK   71  A    between atoms: _203  and  _206
REMARK   72  A    between atoms: _209  and  _211
REMARK   73  A    between atoms: _211  and  _212
REMARK   74  A    between atoms: _211  and  _214
REMARK   75  A    between atoms: _214  and  _215
REMARK   76  A    between atoms: _220  and  _222
REMARK   77  A    between atoms: _222  and  _223
REMARK   78  A    between atoms: _222  and  _225
REMARK   79  A    between atoms: _225  and  _226
REMARK   80  A    between atoms: _232  and  _234
REMARK   81  A    between atoms: _234  and  _235
REMARK   82  A    between atoms: _234  and  _237
REMARK   83  A    between atoms: _240  and  _242
REMARK   84  A    between atoms: _242  and  _243
REMARK   85  A    between atoms: _242  and  _245
REMARK   86  A    between atoms: _245  and  _246
REMARK   87  A    between atoms: _249  and  _251
REMARK   88  A    between atoms: _251  and  _252
REMARK   89  A    between atoms: _255  and  _257
REMARK   90  A    between atoms: _257  and  _258
REMARK   91  A    between atoms: _257  and  _260
REMARK   92  A    between atoms: _263  and  _265
REMARK   93  A    between atoms: _265  and  _266
REMARK   94  A    between atoms: _265  and  _268
REMARK   95  A    between atoms: _268  and  _269
REMARK   96  A    between atoms: _272  and  _274
REMARK   97  A    between atoms: _274  and  _275
REMARK   98  A    between atoms: _277  and  _279
REMARK   99  A    between atoms: _279  and  _280
REMARK  100  A    between atoms: _279  and  _282
REMARK  101  A    between atoms: _282  and  _283
REMARK  102  A    between atoms: _285  and  _287
REMARK  103  A    between atoms: _287  and  _288
REMARK  104  A    between atoms: _287  and  _290
REMARK  105  A    between atoms: _290  and  _291
REMARK  106  A    between atoms: _294  and  _296
REMARK  107  A    between atoms: _296  and  _297
REMARK  108  A    between atoms: _296  and  _299
REMARK  109  A    between atoms: _299  and  _300
REMARK  110  A    between atoms: _303  and  _305
REMARK  111  A    between atoms: _305  and  _306
REMARK  112  A    between atoms: _305  and  _308
REMARK  113  A    between atoms: _308  and  _309
REMARK  114  A    between atoms: _313  and  _314
REMARK  115  A    between atoms: _320  and  _321
REMARK  116  A    between atoms: _326  and  _328
REMARK  117  A    between atoms: _328  and  _329
REMARK  118  A    between atoms: _328  and  _331
REMARK  119  A    between atoms: _331  and  _332
REMARK  120  A    between atoms: _335  and  _337
REMARK  121  A    between atoms: _337  and  _338
REMARK  122  A    between atoms: _337  and  _340
REMARK  123  A    between atoms: _340  and  _341
REMARK  124  A    between atoms: _344  and  _346
REMARK  125  A    between atoms: _346  and  _347
REMARK  126  A    between atoms: _346  and  _349
REMARK  127  A    between atoms: _351  and  _353
REMARK  128  A    between atoms: _353  and  _354
REMARK  129  A    between atoms: _353  and  _356
REMARK  130  A    between atoms: _359  and  _361
REMARK  131  A    between atoms: _361  and  _362
REMARK  132  A    between atoms: _361  and  _364
REMARK  133  A    between atoms: _364  and  _365
REMARK  134  A    between atoms: _375  and  _377
REMARK  135  A    between atoms: _377  and  _378
REMARK  136  A    between atoms: _377  and  _380
REMARK  137  A    between atoms: _380  and  _381
REMARK  138  A    between atoms: _386  and  _388
REMARK  139  A    between atoms: _388  and  _389
REMARK  140  A    between atoms: _388  and  _391
REMARK  141  A    between atoms: _391  and  _392
REMARK  142  A    between atoms: _392  and  _393
REMARK  143  A    between atoms: _393  and  _394
REMARK                            x       y       z     vdW  Elec       q    Type
REMARK                         _______ _______ _______ _____ _____    ______ ____
ROOT
ATOM      1  C   ALA A   2      12.380  -6.703  20.789  0.00  0.00    +0.241 C 
ATOM      2  N   VAL A   3      11.889  -5.490  21.043  0.00  0.00    -0.297 N 
ATOM      3  H   VAL A   3      11.474  -5.285  21.974  0.00  0.00    +0.150 HD
ATOM      4  O   ALA A   2      12.826  -7.035  19.692  0.00  0.00    -0.273 OA
ENDROOT
BRANCH   1   5
ATOM      5  CA  ALA A   2      12.337  -7.705  21.926  0.00  0.00    +0.149 C 
ATOM      6  CB  ALA A   2      13.734  -8.110  22.349  0.00  0.00    +0.031 C 
BRANCH   5   9
ATOM      7  C   LEU A   1      10.529  -9.339  22.092  0.00  0.00    +0.238 C 
ATOM      8  O   LEU A   1      10.248  -9.026  23.254  0.00  0.00    -0.274 OA
ATOM      9  N   ALA A   2      11.584  -8.853  21.433  0.00  0.00    -0.297 N 
ATOM     10  H   ALA A   2      11.877  -9.306  20.544  0.00  0.00    +0.150 HD
BRANCH   7  11
ATOM     11  CA  LEU A   1       9.637 -10.263  21.308  0.00  0.00    +0.145 C 
BRANCH  11  12
ATOM     12  N   LEU A   1       8.984 -11.224  22.185  0.00  0.00    -0.238 NA
ATOM     13  H   LEU A   1       8.391 -10.878  22.966  0.00  0.00    +0.142 HD
ENDBRANCH  11  12
BRANCH  11  14
ATOM     14  CB  LEU A   1       8.592  -9.430  20.554  0.00  0.00    +0.026 C 
BRANCH  14  15
ATOM     15  CG  LEU A   1       8.197  -9.865  19.140  0.00  0.00    +0.002 C 
ATOM     16  CD2 LEU A   1       7.846 -11.316  18.949  0.00  0.00    +0.000 C 
ATOM     17  CD1 LEU A   1       7.113  -8.958  18.536  0.00  0.00    +0.000 C 
ENDBRANCH  14  15
ENDBRANCH  11  14
ENDBRANCH   7  11
ENDBRANCH   5   9
ENDBRANCH   1   5
BRANCH   2  18
ATOM     18  CA  VAL A   3      11.931  -4.449  20.022  0.00  0.00    +0.149 C 
BRANCH  18  19
ATOM     19  C   VAL A   3      12.892  -3.379  20.495  0.00  0.00    +0.241 C 
ATOM     20  O   VAL A   3      12.752  -2.839  21.601  0.00  0.00    -0.273 OA
ATOM     21  N   LEU A   4      13.903  -3.131  19.666  0.00  0.00    -0.298 N 
ATOM     22  H   LEU A   4      14.002  -3.708  18.806  0.00  0.00    +0.150 HD
BRANCH  21  23
ATOM     23  CA  LEU A   4      14.873  -2.079  19.924  0.00  0.00    +0.137 C 
BRANCH  23  24
ATOM     24  C   LEU A   4      14.359  -0.801  19.251  0.00  0.00    +0.227 C 
ATOM     25  O   LEU A   4      14.212  -0.758  18.018  0.00  0.00    -0.286 OA
ENDBRANCH  23  24
BRANCH  23  26
ATOM     26  CB  LEU A   4      16.236  -2.502  19.366  0.00  0.00    +0.028 C 
BRANCH  26  27
ATOM     27  CG  LEU A   4      17.418  -1.564  19.550  0.00  0.00    +0.002 C 
ATOM     28  CD2 LEU A   4      17.668  -1.241  21.019  0.00  0.00    +0.000 C 
ATOM     29  CD1 LEU A   4      18.651  -2.194  18.925  0.00  0.00    +0.000 C 
ENDBRANCH  26  27
ENDBRANCH  23  26
ENDBRANCH  21  23
ENDBRANCH  18  19
BRANCH  18  30
ATOM     30  CB  VAL A   3      10.540  -3.848  19.648  0.00  0.00    +0.027 C 
ATOM     31  CG2 VAL A   3       9.563  -4.948  19.238  0.00  0.00    +0.002 C 
ATOM     32  CG1 VAL A   3      10.720  -2.857  18.496  0.00  0.00    +0.002 C 
ENDBRANCH  18  30
ENDBRANCH   2  18
TORSDOF 13
REMARK  Name = ../refined-set-2016/2weo/2weo_pocket.pdb
REMARK  143 active torsions:
REMARK  status: ('A' for Active; 'I' for Inactive)
REMARK    1  A    between atoms: _1  and  _3
REMARK    2  A    between atoms: _3  and  _4
REMARK    3  A    between atoms: _3  and  _6
REMARK    4  A    between atoms: _6  and  _7
REMARK    5  A    between atoms: _17  and  _19
REMARK    6  A    between atoms: _19  and  _20
REMARK    7  A    between atoms: _19  and  _22
REMARK    8  A    between atoms: _22  and  _23
REMARK    9  A    between atoms: _28  and  _29
REMARK   10  A    between atoms: _31  and  _33
REMARK   11  A    between atoms: _33  and  _34
REMARK   12  A    between atoms: _33  and  _36
REMARK   13  A    between atoms: _36  and  _37
REMARK   14  A    between atoms: _40  and  _41
REMARK   15  A    between atoms: _46  and  _48
REMARK   16  A    between atoms: _48  and  _49
REMARK   17  A    between atoms: _48  and  _51
REMARK   18  A    between atoms: _51  and  _52
REMARK   19  A    between atoms: _57  and  _59
REMARK   20  A    between atoms: _59  and  _60
REMARK   21  A    between atoms: _63  and  _65
REMARK   22  A    between atoms: _65  and  _66
REMARK   23  A    between atoms: _65  and  _68
REMARK   24  A    between atoms: _68  and  _69
REMARK   25  A    between atoms: _74  and  _76
REMARK   26  A    between atoms: _76  and  _77
REMARK   27  A    between atoms: _76  and  _79
REMARK   28  A    between atoms: _79  and  _80
REMARK   29  A    between atoms: _83  and  _85
REMARK   30  A    between atoms: _85  and  _86
REMARK   31  A    between atoms: _85  and  _88
REMARK   32  A    between atoms: _88  and  _89
REMARK   33  A    between atoms: _89  and  _90
REMARK   34  A    between atoms: _95  and  _97
REMARK   35  A    between atoms: _97  and  _98
REMARK   36  A    between atoms: _97  and  _100
REMARK   37  A    between atoms: _100  and  _101
REMARK   38  A    between atoms: _107  and  _109
REMARK   39  A    between atoms: _120  and  _123
REMARK   40  A    between atoms: _123  and  _124
REMARK   41  A    between atoms: _132  and  _133
REMARK   42  A    between atoms: _141  and  _143
REMARK   43  A    between atoms: _143  and  _144
REMARK   44  A    between atoms: _143  and  _146
REMARK   45  A    between atoms: _146  and  _147
REMARK   46  A    between atoms: _147  and  _148
REMARK   47  A    between atoms: _151  and  _153
REMARK   48  A    between atoms: _153  and  _154
REMARK   49  A    between atoms: _153  and  _156
REMARK   50  A    between atoms: _156  and  _157
REMARK   51  A    between atoms: _162  and  _164
REMARK   52  A    between atoms: _164  and  _165
REMARK   53  A    between atoms: _164  and  _167
REMARK   54  A    between atoms: _167  and  _168
REMARK   55  A    between atoms: _168  and  _169
REMARK   56  A    between atoms: _172  and  _174
REMARK   57  A    between atoms: _174  and  _175
REMARK   58  A    between atoms: _174  and  _177
REMARK   59  A    between atoms: _177  and  _178
REMARK   60  A    between atoms: _181  and  _183
REMARK   61  A    between atoms: _183  and  _184
REMARK   62  A    between atoms: _183  and  _186
REMARK   63  A    between atoms: _186  and  _187
REMARK   64  A    between atoms: _188  and  ZN_403
REMARK   65  A    between atoms: _192  and  _194
REMARK   66  A    between atoms: _194  and  _195
REMARK   67  A    between atoms: _194  and  _197
REMARK   68  A    between atoms: _197  and  _198
REMARK   69  A    between atoms: _201  and  _203
REMARK   70  A    between atoms: _203  and  _204
REMARK   71  A    between atoms: _203  and  _206
REMARK   72  A    between atoms: _209  and  _211
REMARK   73  A    between atoms: _211  and  _212
REMARK   74  A    between atoms: _211  and  _214
REMARK   75  A    between atoms: _214  and  _215
REMARK   76  A    between atoms: _220  and  _222
REMARK   77  A    between atoms: _222  and  _223
REMARK   78  A    between atoms: _222  and  _225
REMARK   79  A    between atoms: _225  and  _226
REMARK   80  A    between atoms: _232  and  _234
REMARK   81  A    between atoms: _234  and  _235
REMARK   82  A    between atoms: _234  and  _237
REMARK   83  A    between atoms: _240  and  _242
REMARK   84  A    between atoms: _242  and  _243
REMARK   85  A    between atoms: _242  and  _245
REMARK   86  A    between atoms: _245  and  _246
REMARK   87  A    between atoms: _249  and  _251
REMARK   88  A    between atoms: _251  and  _252
REMARK   89  A    between atoms: _255  and  _257
REMARK   90  A    between atoms: _257  and  _258
REMARK   91  A    between atoms: _257  and  _260
REMARK   92  A    between atoms: _263  and  _265
REMARK   93  A    between atoms: _265  and  _266
REMARK   94  A    between atoms: _265  and  _268
REMARK   95  A    between atoms: _268  and  _269
REMARK   96  A    between atoms: _272  and  _274
REMARK   97  A    between atoms: _274  and  _275
REMARK   98  A    between atoms: _277  and  _279
REMARK   99  A    between atoms: _279  and  _280
REMARK  100  A    between atoms: _279  and  _282
REMARK  101  A    between atoms: _282  and  _283
REMARK  102  A    between atoms: _285  and  _287
REMARK  103  A    between atoms: _287  and  _288
REMARK  104  A    between atoms: _287  and  _290
REMARK  105  A    between atoms: _290  and  _291
REMARK  106  A    between atoms: _294  and  _296
REMARK  107  A    between atoms: _296  and  _297
REMARK  108  A    between atoms: _296  and  _299
REMARK  109  A    between atoms: _299  and  _300
REMARK  110  A    between atoms: _303  and  _305
REMARK  111  A    between atoms: _305  and  _306
REMARK  112  A    between atoms: _305  and  _308
REMARK  113  A    between atoms: _308  and  _309
REMARK  114  A    between atoms: _313  and  _314
REMARK  115  A    between atoms: _320  and  _321
REMARK  116  A    between atoms: _326  and  _328
REMARK  117  A    between atoms: _328  and  _329
REMARK  118  A    between atoms: _328  and  _331
REMARK  119  A    between atoms: _331  and  _332
REMARK  120  A    between atoms: _335  and  _337
REMARK  121  A    between atoms: _337  and  _338
REMARK  122  A    between atoms: _337  and  _340
REMARK  123  A    between atoms: _340  and  _341
REMARK  124  A    between atoms: _344  and  _346
REMARK  125  A    between atoms: _346  and  _347
REMARK  126  A    between atoms: _346  and  _349
REMARK  127  A    between atoms: _351  and  _353
REMARK  128  A    between atoms: _353  and  _354
REMARK  129  A    between atoms: _353  and  _356
REMARK  130  A    between atoms: _359  and  _361
REMARK  131  A    between atoms: _361  and  _362
REMARK  132  A    between atoms: _361  and  _364
REMARK  133  A    between atoms: _364  and  _365
REMARK  134  A    between atoms: _375  and  _377
REMARK  135  A    between atoms: _377  and  _378
REMARK  136  A    between atoms: _377  and  _380
REMARK  137  A    between atoms: _380  and  _381
REMARK  138  A    between atoms: _386  and  _388
REMARK  139  A    between atoms: _388  and  _389
REMARK  140  A    between atoms: _388  and  _391
REMARK  141  A    between atoms: _391  and  _392
REMARK  142  A    between atoms: _392  and  _393
REMARK  143  A    between atoms: _393  and  _394
REMARK                            x       y       z     vdW  Elec       q    Type
REMARK                         _______ _______ _______ _____ _____    ______ ____
ROOT
ATOM      1  CA  THR A   5      -0.289  -1.700  16.206  0.00  0.00    +0.176 C 
ENDROOT
BRANCH   1   2
ATOM      2  C   THR A   5      -1.099  -2.940  16.503  0.00  0.00    +0.246 C 
ATOM      3  O   THR A   5      -0.588  -3.877  17.123  0.00  0.00    -0.273 OA
ATOM      4  N   PRO A   6      -2.362  -2.973  16.046  0.00  0.00    -0.272 N 
ATOM      5  CA  PRO A   6      -3.087  -4.230  16.098  0.00  0.00    +0.152 C 
ATOM      6  CB  PRO A   6      -4.307  -3.943  15.211  0.00  0.00    +0.031 C 
ATOM      7  CG  PRO A   6      -4.586  -2.506  15.498  0.00  0.00    +0.024 C 
ATOM      8  CD  PRO A   6      -3.194  -1.888  15.492  0.00  0.00    +0.094 C 
BRANCH   5   9
ATOM      9  C   PRO A   6      -2.208  -5.355  15.540  0.00  0.00    +0.244 C 
ATOM     10  N   PRO A   7      -2.260  -6.552  16.145  0.00  0.00    -0.272 N 
ATOM     11  CA  PRO A   7      -3.157  -6.983  17.231  0.00  0.00    +0.152 C 
ATOM     12  CB  PRO A   7      -3.130  -8.506  17.111  0.00  0.00    +0.031 C 
ATOM     13  CG  PRO A   7      -1.768  -8.800  16.580  0.00  0.00    +0.024 C 
ATOM     14  CD  PRO A   7      -1.417  -7.663  15.656  0.00  0.00    +0.094 C 
ATOM     15  O   PRO A   6      -1.491  -5.143  14.539  0.00  0.00    -0.273 OA
BRANCH  11  16
ATOM     16  C   PRO A   7      -2.812  -6.562  18.676  0.00  0.00    +0.241 C 
ATOM     17  O   PRO A   7      -3.463  -7.023  19.615  0.00  0.00    -0.273 OA
ATOM     18  N   LEU A   8      -1.804  -5.704  18.847  0.00  0.00    -0.297 N 
ATOM     19  H   LEU A   8      -1.188  -5.476  18.041  0.00  0.00    +0.150 HD
BRANCH  18  20
ATOM     20  CA  LEU A   8      -1.544  -5.071  20.155  0.00  0.00    +0.149 C 
BRANCH  20  21
ATOM     21  C   LEU A   8      -1.179  -6.075  21.247  0.00  0.00    +0.241 C 
ATOM     22  O   LEU A   8      -1.331  -5.817  22.444  0.00  0.00    -0.273 OA
ATOM     23  N   LEU A   9      -0.603  -7.189  20.808  0.00  0.00    -0.298 N 
ATOM     24  H   LEU A   9      -0.374  -7.284  19.798  0.00  0.00    +0.150 HD
BRANCH  23  25
ATOM     25  CA  LEU A   9      -0.286  -8.285  21.725  0.00  0.00    +0.137 C 
BRANCH  25  26
ATOM     26  C   LEU A   9       0.760  -7.897  22.752  0.00  0.00    +0.227 C 
ATOM     27  O   LEU A   9       1.733  -7.188  22.450  0.00  0.00    -0.286 OA
ENDBRANCH  25  26
BRANCH  25  28
ATOM     28  CB  LEU A   9       0.162  -9.521  20.936  0.00  0.00    +0.028 C 
BRANCH  28  29
ATOM     29  CG  LEU A   9      -0.907 -10.097  19.993  0.00  0.00    +0.002 C 
ATOM     30  CD2 LEU A   9      -2.067 -10.723  20.784  0.00  0.00    +0.000 C 
ATOM     31  CD1 LEU A   9      -0.285 -11.130  19.073  0.00  0.00    +0.000 C 
ENDBRANCH  28  29
ENDBRANCH  25  28
ENDBRANCH  23  25
ENDBRANCH  20  21
BRANCH  20  32
ATOM     32  CB  LEU A   8      -2.712  -4.166  20.593  0.00  0.00    +0.029 C 
BRANCH  32  33
ATOM     33  CG  LEU A   8      -3.017  -3.004  19.652  0.00  0.00    +0.002 C 
ATOM     34  CD2 LEU A   8      -4.359  -2.407  20.025  0.00  0.00    +0.000 C 
ATOM     35  CD1 LEU A   8      -1.933  -1.937  19.696  0.00  0.00    +0.000 C 
ENDBRANCH  32  33
ENDBRANCH  20  32
ENDBRANCH  18  20
ENDBRANCH  11  16
ENDBRANCH   5   9
ENDBRANCH   1   2
BRANCH   1  38
ATOM     36  C   THR A   4       1.021  -0.566  17.926  0.00  0.00    +0.243 C 
ATOM     37  O   THR A   4       0.414   0.501  17.752  0.00  0.00    -0.273 OA
ATOM     38  N   THR A   5       0.810  -1.645  17.171  0.00  0.00    -0.295 N 
ATOM     39  H   THR A   5       1.441  -2.466  17.270  0.00  0.00    +0.150 HD
BRANCH  36  40
ATOM     40  CA  THR A   4       2.053  -0.675  19.041  0.00  0.00    +0.176 C 
BRANCH  40  43
ATOM     41  C   LEU A   3       2.237  -2.953  19.832  0.00  0.00    +0.241 C 
ATOM     42  O   LEU A   3       1.223  -2.808  20.551  0.00  0.00    -0.273 OA
ATOM     43  N   THR A   4       2.721  -1.982  19.069  0.00  0.00    -0.295 N 
ATOM     44  H   THR A   4       3.571  -2.146  18.492  0.00  0.00    +0.150 HD
BRANCH  41  45
ATOM     45  CA  LEU A   3       2.975  -4.276  19.789  0.00  0.00    +0.149 C 
BRANCH  45  48
ATOM     46  C   SER A   2       3.505  -4.151  22.157  0.00  0.00    +0.243 C 
ATOM     47  O   SER A   2       4.265  -3.203  21.996  0.00  0.00    -0.273 OA
ATOM     48  N   LEU A   3       2.969  -4.832  21.152  0.00  0.00    -0.297 N 
ATOM     49  H   LEU A   3       2.542  -5.764  21.328  0.00  0.00    +0.150 HD
BRANCH  46  50
ATOM     50  CA  SER A   2       3.086  -4.573  23.550  0.00  0.00    +0.178 C 
BRANCH  50  53
ATOM     51  C   GLY A   1       4.291  -4.564  25.661  0.00  0.00    +0.240 C 
ATOM     52  O   GLY A   1       4.216  -5.787  25.793  0.00  0.00    -0.274 OA
ATOM     53  N   SER A   2       3.873  -3.912  24.581  0.00  0.00    -0.295 N 
ATOM     54  H   SER A   2       4.114  -2.906  24.470  0.00  0.00    +0.150 HD
BRANCH  51  55
ATOM     55  CA  GLY A   1       4.882  -3.692  26.735  0.00  0.00    +0.169 C 
BRANCH  55  56
ATOM     56  N   GLY A   1       5.982  -4.337  27.457  0.00  0.00    -0.236 NA
ATOM     57  H   GLY A   1       6.586  -5.033  26.975  0.00  0.00    +0.142 HD
ENDBRANCH  55  56
ENDBRANCH  51  55
ENDBRANCH  50  53
BRANCH  50  58
ATOM     58  CB  SER A   2       1.599  -4.184  23.726  0.00  0.00    +0.166 C 
BRANCH  58  59
ATOM     59  OG  SER A   2       1.360  -2.832  23.313  0.00  0.00    -0.380 OA
ATOM     60  H   SER A   2       1.601  -2.733  22.358  0.00  0.00    +0.211 HD
ENDBRANCH  58  59
ENDBRANCH  50  58
ENDBRANCH  46  50
ENDBRANCH  45  48
BRANCH  45  61
ATOM     61  CB  LEU A   3       2.243  -5.206  18.822  0.00  0.00    +0.029 C 
BRANCH  61  62
ATOM     62  CG  LEU A   3       2.697  -6.668  18.801  0.00  0.00    +0.002 C 
ATOM     63  CD2 LEU A   3       4.189  -6.780  18.441  0.00  0.00    +0.000 C 
ATOM     64  CD1 LEU A   3       1.840  -7.452  17.823  0.00  0.00    +0.000 C 
ENDBRANCH  61  62
ENDBRANCH  45  61
ENDBRANCH  41  45
ENDBRANCH  40  43
BRANCH  40  65
ATOM     65  CB  THR A   4       3.050   0.458  18.865  0.00  0.00    +0.137 C 
ATOM     66  CG2 THR A   4       4.132   0.420  19.951  0.00  0.00    +0.034 C 
BRANCH  65  67
ATOM     67  OG1 THR A   4       3.655   0.331  17.572  0.00  0.00    -0.382 OA
ATOM     68  HG1 THR A   4       4.308   1.063  17.441  0.00  0.00    +0.210 HD
ENDBRANCH  65  67
ENDBRANCH  40  65
ENDBRANCH  36  40
ENDBRANCH   1  38
BRANCH   1  69
ATOM     69  CB  THR A   5       0.197  -1.812  14.738  0.00  0.00    +0.137 C 
ATOM     70  CG2 THR A   5       1.258  -0.801  14.435  0.00  0.00    +0.034 C 
BRANCH  69  71
ATOM     71  OG1 THR A   5       0.715  -3.130  14.496  0.00  0.00    -0.382 OA
ATOM     72  HG1 THR A   5       1.023  -3.195  13.558  0.00  0.00    +0.210 HD
ENDBRANCH  69  71
ENDBRANCH   1  69
TORSDOF 28
REMARK  Name = ../refined-set-2016/2weo/2weo_pocket.pdb
REMARK  143 active torsions:
REMARK  status: ('A' for Active; 'I' for Inactive)
REMARK    1  A    between atoms: _1  and  _3
REMARK    2  A    between atoms: _3  and  _4
REMARK    3  A    between atoms: _3  and  _6
REMARK    4  A    between atoms: _6  and  _7
REMARK    5  A    between atoms: _17  and  _19
REMARK    6  A    between atoms: _19  and  _20
REMARK    7  A    between atoms: _19  and  _22
REMARK    8  A    between atoms: _22  and  _23
REMARK    9  A    between atoms: _28  and  _29
REMARK   10  A    between atoms: _31  and  _33
REMARK   11  A    between atoms: _33  and  _34
REMARK   12  A    between atoms: _33  and  _36
REMARK   13  A    between atoms: _36  and  _37
REMARK   14  A    between atoms: _40  and  _41
REMARK   15  A    between atoms: _46  and  _48
REMARK   16  A    between atoms: _48  and  _49
REMARK   17  A    between atoms: _48  and  _51
REMARK   18  A    between atoms: _51  and  _52
REMARK   19  A    between atoms: _57  and  _59
REMARK   20  A    between atoms: _59  and  _60
REMARK   21  A    between atoms: _63  and  _65
REMARK   22  A    between atoms: _65  and  _66
REMARK   23  A    between atoms: _65  and  _68
REMARK   24  A    between atoms: _68  and  _69
REMARK   25  A    between atoms: _74  and  _76
REMARK   26  A    between atoms: _76  and  _77
REMARK   27  A    between atoms: _76  and  _79
REMARK   28  A    between atoms: _79  and  _80
REMARK   29  A    between atoms: _83  and  _85
REMARK   30  A    between atoms: _85  and  _86
REMARK   31  A    between atoms: _85  and  _88
REMARK   32  A    between atoms: _88  and  _89
REMARK   33  A    between atoms: _89  and  _90
REMARK   34  A    between atoms: _95  and  _97
REMARK   35  A    between atoms: _97  and  _98
REMARK   36  A    between atoms: _97  and  _100
REMARK   37  A    between atoms: _100  and  _101
REMARK   38  A    between atoms: _107  and  _109
REMARK   39  A    between atoms: _120  and  _123
REMARK   40  A    between atoms: _123  and  _124
REMARK   41  A    between atoms: _132  and  _133
REMARK   42  A    between atoms: _141  and  _143
REMARK   43  A    between atoms: _143  and  _144
REMARK   44  A    between atoms: _143  and  _146
REMARK   45  A    between atoms: _146  and  _147
REMARK   46  A    between atoms: _147  and  _148
REMARK   47  A    between atoms: _151  and  _153
REMARK   48  A    between atoms: _153  and  _154
REMARK   49  A    between atoms: _153  and  _156
REMARK   50  A    between atoms: _156  and  _157
REMARK   51  A    between atoms: _162  and  _164
REMARK   52  A    between atoms: _164  and  _165
REMARK   53  A    between atoms: _164  and  _167
REMARK   54  A    between atoms: _167  and  _168
REMARK   55  A    between atoms: _168  and  _169
REMARK   56  A    between atoms: _172  and  _174
REMARK   57  A    between atoms: _174  and  _175
REMARK   58  A    between atoms: _174  and  _177
REMARK   59  A    between atoms: _177  and  _178
REMARK   60  A    between atoms: _181  and  _183
REMARK   61  A    between atoms: _183  and  _184
REMARK   62  A    between atoms: _183  and  _186
REMARK   63  A    between atoms: _186  and  _187
REMARK   64  A    between atoms: _188  and  ZN_403
REMARK   65  A    between atoms: _192  and  _194
REMARK   66  A    between atoms: _194  and  _195
REMARK   67  A    between atoms: _194  and  _197
REMARK   68  A    between atoms: _197  and  _198
REMARK   69  A    between atoms: _201  and  _203
REMARK   70  A    between atoms: _203  and  _204
REMARK   71  A    between atoms: _203  and  _206
REMARK   72  A    between atoms: _209  and  _211
REMARK   73  A    between atoms: _211  and  _212
REMARK   74  A    between atoms: _211  and  _214
REMARK   75  A    between atoms: _214  and  _215
REMARK   76  A    between atoms: _220  and  _222
REMARK   77  A    between atoms: _222  and  _223
REMARK   78  A    between atoms: _222  and  _225
REMARK   79  A    between atoms: _225  and  _226
REMARK   80  A    between atoms: _232  and  _234
REMARK   81  A    between atoms: _234  and  _235
REMARK   82  A    between atoms: _234  and  _237
REMARK   83  A    between atoms: _240  and  _242
REMARK   84  A    between atoms: _242  and  _243
REMARK   85  A    between atoms: _242  and  _245
REMARK   86  A    between atoms: _245  and  _246
REMARK   87  A    between atoms: _249  and  _251
REMARK   88  A    between atoms: _251  and  _252
REMARK   89  A    between atoms: _255  and  _257
REMARK   90  A    between atoms: _257  and  _258
REMARK   91  A    between atoms: _257  and  _260
REMARK   92  A    between atoms: _263  and  _265
REMARK   93  A    between atoms: _265  and  _266
REMARK   94  A    between atoms: _265  and  _268
REMARK   95  A    between atoms: _268  and  _269
REMARK   96  A    between atoms: _272  and  _274
REMARK   97  A    between atoms: _274  and  _275
REMARK   98  A    between atoms: _277  and  _279
REMARK   99  A    between atoms: _279  and  _280
REMARK  100  A    between atoms: _279  and  _282
REMARK  101  A    between atoms: _282  and  _283
REMARK  102  A    between atoms: _285  and  _287
REMARK  103  A    between atoms: _287  and  _288
REMARK  104  A    between atoms: _287  and  _290
REMARK  105  A    between atoms: _290  and  _291
REMARK  106  A    between atoms: _294  and  _296
REMARK  107  A    between atoms: _296  and  _297
REMARK  108  A    between atoms: _296  and  _299
REMARK  109  A    between atoms: _299  and  _300
REMARK  110  A    between atoms: _303  and  _305
REMARK  111  A    between atoms: _305  and  _306
REMARK  112  A    between atoms: _305  and  _308
REMARK  113  A    between atoms: _308  and  _309
REMARK  114  A    between atoms: _313  and  _314
REMARK  115  A    between atoms: _320  and  _321
REMARK  116  A    between atoms: _326  and  _328
REMARK  117  A    between atoms: _328  and  _329
REMARK  118  A    between atoms: _328  and  _331
REMARK  119  A    between atoms: _331  and  _332
REMARK  120  A    between atoms: _335  and  _337
REMARK  121  A    between atoms: _337  and  _338
REMARK  122  A    between atoms: _337  and  _340
REMARK  123  A    between atoms: _340  and  _341
REMARK  124  A    between atoms: _344  and  _346
REMARK  125  A    between atoms: _346  and  _347
REMARK  126  A    between atoms: _346  and  _349
REMARK  127  A    between atoms: _351  and  _353
REMARK  128  A    between atoms: _353  and  _354
REMARK  129  A    between atoms: _353  and  _356
REMARK  130  A    between atoms: _359  and  _361
REMARK  131  A    between atoms: _361  and  _362
REMARK  132  A    between atoms: _361  and  _364
REMARK  133  A    between atoms: _364  and  _365
REMARK  134  A    between atoms: _375  and  _377
REMARK  135  A    between atoms: _377  and  _378
REMARK  136  A    between atoms: _377  and  _380
REMARK  137  A    between atoms: _380  and  _381
REMARK  138  A    between atoms: _386  and  _388
REMARK  139  A    between atoms: _388  and  _389
REMARK  140  A    between atoms: _388  and  _391
REMARK  141  A    between atoms: _391  and  _392
REMARK  142  A    between atoms: _392  and  _393
REMARK  143  A    between atoms: _393  and  _394
REMARK                            x       y       z     vdW  Elec       q    Type
REMARK                         _______ _______ _______ _____ _____    ______ ____
ROOT
ATOM      1  C   CYS A   1       5.941  -9.219  23.942  0.00  0.00    +0.239 C 
ATOM      2  N   VAL A   2       6.077  -7.920  24.196  0.00  0.00    -0.298 N 
ATOM      3  H   VAL A   2       5.291  -7.402  24.639  0.00  0.00    +0.150 HD
ATOM      4  O   CYS A   1       6.880  -9.937  23.638  0.00  0.00    -0.274 OA
ENDROOT
BRANCH   1   5
ATOM      5  CA  CYS A   1       4.554  -9.830  24.052  0.00  0.00    +0.156 C 
BRANCH   5   6
ATOM      6  N   CYS A   1       3.493  -8.845  24.234  0.00  0.00    -0.237 NA
ATOM      7  H   CYS A   1       3.423  -8.054  23.562  0.00  0.00    +0.142 HD
ENDBRANCH   5   6
BRANCH   5   8
ATOM      8  CB  CYS A   1       4.279 -10.679  22.809  0.00  0.00    +0.095 C 
ATOM      9  SG  CYS A   1       4.218  -9.698  21.270  0.00  0.00    -0.080 S 
ENDBRANCH   5   8
ENDBRANCH   1   5
BRANCH   2  10
ATOM     10  CA  VAL A   2       7.316  -7.202  23.863  0.00  0.00    +0.137 C 
BRANCH  10  11
ATOM     11  CB  VAL A   2       7.029  -5.945  22.992  0.00  0.00    +0.026 C 
ATOM     12  CG2 VAL A   2       8.333  -5.257  22.617  0.00  0.00    +0.002 C 
ATOM     13  CG1 VAL A   2       6.254  -6.323  21.736  0.00  0.00    +0.002 C 
ENDBRANCH  10  11
BRANCH  10  14
ATOM     14  C   VAL A   2       8.081  -6.750  25.094  0.00  0.00    +0.227 C 
ATOM     15  O   VAL A   2       7.526  -6.108  25.974  0.00  0.00    -0.286 OA
ENDBRANCH  10  14
ENDBRANCH   2  10
TORSDOF 6
REMARK  Name = ../refined-set-2016/2weo/2weo_pocket.pdb
REMARK  143 active torsions:
REMARK  status: ('A' for Active; 'I' for Inactive)
REMARK    1  A    between atoms: _1  and  _3
REMARK    2  A    between atoms: _3  and  _4
REMARK    3  A    between atoms: _3  and  _6
REMARK    4  A    between atoms: _6  and  _7
REMARK    5  A    between atoms: _17  and  _19
REMARK    6  A    between atoms: _19  and  _20
REMARK    7  A    between atoms: _19  and  _22
REMARK    8  A    between atoms: _22  and  _23
REMARK    9  A    between atoms: _28  and  _29
REMARK   10  A    between atoms: _31  and  _33
REMARK   11  A    between atoms: _33  and  _34
REMARK   12  A    between atoms: _33  and  _36
REMARK   13  A    between atoms: _36  and  _37
REMARK   14  A    between atoms: _40  and  _41
REMARK   15  A    between atoms: _46  and  _48
REMARK   16  A    between atoms: _48  and  _49
REMARK   17  A    between atoms: _48  and  _51
REMARK   18  A    between atoms: _51  and  _52
REMARK   19  A    between atoms: _57  and  _59
REMARK   20  A    between atoms: _59  and  _60
REMARK   21  A    between atoms: _63  and  _65
REMARK   22  A    between atoms: _65  and  _66
REMARK   23  A    between atoms: _65  and  _68
REMARK   24  A    between atoms: _68  and  _69
REMARK   25  A    between atoms: _74  and  _76
REMARK   26  A    between atoms: _76  and  _77
REMARK   27  A    between atoms: _76  and  _79
REMARK   28  A    between atoms: _79  and  _80
REMARK   29  A    between atoms: _83  and  _85
REMARK   30  A    between atoms: _85  and  _86
REMARK   31  A    between atoms: _85  and  _88
REMARK   32  A    between atoms: _88  and  _89
REMARK   33  A    between atoms: _89  and  _90
REMARK   34  A    between atoms: _95  and  _97
REMARK   35  A    between atoms: _97  and  _98
REMARK   36  A    between atoms: _97  and  _100
REMARK   37  A    between atoms: _100  and  _101
REMARK   38  A    between atoms: _107  and  _109
REMARK   39  A    between atoms: _120  and  _123
REMARK   40  A    between atoms: _123  and  _124
REMARK   41  A    between atoms: _132  and  _133
REMARK   42  A    between atoms: _141  and  _143
REMARK   43  A    between atoms: _143  and  _144
REMARK   44  A    between atoms: _143  and  _146
REMARK   45  A    between atoms: _146  and  _147
REMARK   46  A    between atoms: _147  and  _148
REMARK   47  A    between atoms: _151  and  _153
REMARK   48  A    between atoms: _153  and  _154
REMARK   49  A    between atoms: _153  and  _156
REMARK   50  A    between atoms: _156  and  _157
REMARK   51  A    between atoms: _162  and  _164
REMARK   52  A    between atoms: _164  and  _165
REMARK   53  A    between atoms: _164  and  _167
REMARK   54  A    between atoms: _167  and  _168
REMARK   55  A    between atoms: _168  and  _169
REMARK   56  A    between atoms: _172  and  _174
REMARK   57  A    between atoms: _174  and  _175
REMARK   58  A    between atoms: _174  and  _177
REMARK   59  A    between atoms: _177  and  _178
REMARK   60  A    between atoms: _181  and  _183
REMARK   61  A    between atoms: _183  and  _184
REMARK   62  A    between atoms: _183  and  _186
REMARK   63  A    between atoms: _186  and  _187
REMARK   64  A    between atoms: _188  and  ZN_403
REMARK   65  A    between atoms: _192  and  _194
REMARK   66  A    between atoms: _194  and  _195
REMARK   67  A    between atoms: _194  and  _197
REMARK   68  A    between atoms: _197  and  _198
REMARK   69  A    between atoms: _201  and  _203
REMARK   70  A    between atoms: _203  and  _204
REMARK   71  A    between atoms: _203  and  _206
REMARK   72  A    between atoms: _209  and  _211
REMARK   73  A    between atoms: _211  and  _212
REMARK   74  A    between atoms: _211  and  _214
REMARK   75  A    between atoms: _214  and  _215
REMARK   76  A    between atoms: _220  and  _222
REMARK   77  A    between atoms: _222  and  _223
REMARK   78  A    between atoms: _222  and  _225
REMARK   79  A    between atoms: _225  and  _226
REMARK   80  A    between atoms: _232  and  _234
REMARK   81  A    between atoms: _234  and  _235
REMARK   82  A    between atoms: _234  and  _237
REMARK   83  A    between atoms: _240  and  _242
REMARK   84  A    between atoms: _242  and  _243
REMARK   85  A    between atoms: _242  and  _245
REMARK   86  A    between atoms: _245  and  _246
REMARK   87  A    between atoms: _249  and  _251
REMARK   88  A    between atoms: _251  and  _252
REMARK   89  A    between atoms: _255  and  _257
REMARK   90  A    between atoms: _257  and  _258
REMARK   91  A    between atoms: _257  and  _260
REMARK   92  A    between atoms: _263  and  _265
REMARK   93  A    between atoms: _265  and  _266
REMARK   94  A    between atoms: _265  and  _268
REMARK   95  A    between atoms: _268  and  _269
REMARK   96  A    between atoms: _272  and  _274
REMARK   97  A    between atoms: _274  and  _275
REMARK   98  A    between atoms: _277  and  _279
REMARK   99  A    between atoms: _279  and  _280
REMARK  100  A    between atoms: _279  and  _282
REMARK  101  A    between atoms: _282  and  _283
REMARK  102  A    between atoms: _285  and  _287
REMARK  103  A    between atoms: _287  and  _288
REMARK  104  A    between atoms: _287  and  _290
REMARK  105  A    between atoms: _290  and  _291
REMARK  106  A    between atoms: _294  and  _296
REMARK  107  A    between atoms: _296  and  _297
REMARK  108  A    between atoms: _296  and  _299
REMARK  109  A    between atoms: _299  and  _300
REMARK  110  A    between atoms: _303  and  _305
REMARK  111  A    between atoms: _305  and  _306
REMARK  112  A    between atoms: _305  and  _308
REMARK  113  A    between atoms: _308  and  _309
REMARK  114  A    between atoms: _313  and  _314
REMARK  115  A    between atoms: _320  and  _321
REMARK  116  A    between atoms: _326  and  _328
REMARK  117  A    between atoms: _328  and  _329
REMARK  118  A    between atoms: _328  and  _331
REMARK  119  A    between atoms: _331  and  _332
REMARK  120  A    between atoms: _335  and  _337
REMARK  121  A    between atoms: _337  and  _338
REMARK  122  A    between atoms: _337  and  _340
REMARK  123  A    between atoms: _340  and  _341
REMARK  124  A    between atoms: _344  and  _346
REMARK  125  A    between atoms: _346  and  _347
REMARK  126  A    between atoms: _346  and  _349
REMARK  127  A    between atoms: _351  and  _353
REMARK  128  A    between atoms: _353  and  _354
REMARK  129  A    between atoms: _353  and  _356
REMARK  130  A    between atoms: _359  and  _361
REMARK  131  A    between atoms: _361  and  _362
REMARK  132  A    between atoms: _361  and  _364
REMARK  133  A    between atoms: _364  and  _365
REMARK  134  A    between atoms: _375  and  _377
REMARK  135  A    between atoms: _377  and  _378
REMARK  136  A    between atoms: _377  and  _380
REMARK  137  A    between atoms: _380  and  _381
REMARK  138  A    between atoms: _386  and  _388
REMARK  139  A    between atoms: _388  and  _389
REMARK  140  A    between atoms: _388  and  _391
REMARK  141  A    between atoms: _391  and  _392
REMARK  142  A    between atoms: _392  and  _393
REMARK  143  A    between atoms: _393  and  _394
REMARK                            x       y       z     vdW  Elec       q    Type
REMARK                         _______ _______ _______ _____ _____    ______ ____
ROOT
ATOM      1  CG  TRP A   1       8.786  -1.772  24.083  0.00  0.00    -0.002 A 
ATOM      2  CD1 TRP A   1       7.567  -2.346  24.262  0.00  0.00    +0.068 A 
ATOM      3  NE1 TRP A   1       6.855  -2.315  23.086  0.00  0.00    -0.352 N 
ATOM      4  HE1 TRP A   1       5.893  -2.687  22.953  0.00  0.00    +0.166 HD
ATOM      5  CE2 TRP A   1       7.621  -1.711  22.113  0.00  0.00    +0.056 A 
ATOM      6  CZ2 TRP A   1       7.347  -1.450  20.759  0.00  0.00    +0.017 A 
ATOM      7  CH2 TRP A   1       8.332  -0.829  20.029  0.00  0.00    +0.001 A 
ATOM      8  CZ3 TRP A   1       9.561  -0.465  20.605  0.00  0.00    +0.000 A 
ATOM      9  CE3 TRP A   1       9.824  -0.733  21.932  0.00  0.00    +0.001 A 
ATOM     10  CD2 TRP A   1       8.848  -1.364  22.708  0.00  0.00    +0.013 A 
ENDROOT
BRANCH   1  11
ATOM     11  CB  TRP A   1       9.877  -1.652  25.075  0.00  0.00    +0.053 C 
BRANCH  11  12
ATOM     12  CA  TRP A   1      10.894  -2.794  24.899  0.00  0.00    +0.137 C 
BRANCH  12  13
ATOM     13  N   TRP A   1      10.435  -3.995  25.593  0.00  0.00    -0.239 NA
ATOM     14  H   TRP A   1       9.804  -3.903  26.414  0.00  0.00    +0.142 HD
ENDBRANCH  12  13
BRANCH  12  15
ATOM     15  C   TRP A   1      12.256  -2.355  25.393  0.00  0.00    +0.224 C 
ATOM     16  O   TRP A   1      12.495  -2.311  26.602  0.00  0.00    -0.287 OA
ENDBRANCH  12  15
ENDBRANCH  11  12
ENDBRANCH   1  11
TORSDOF 4
REMARK  Name = ../refined-set-2016/2weo/2weo_pocket.pdb
REMARK  143 active torsions:
REMARK  status: ('A' for Active; 'I' for Inactive)
REMARK    1  A    between atoms: _1  and  _3
REMARK    2  A    between atoms: _3  and  _4
REMARK    3  A    between atoms: _3  and  _6
REMARK    4  A    between atoms: _6  and  _7
REMARK    5  A    between atoms: _17  and  _19
REMARK    6  A    between atoms: _19  and  _20
REMARK    7  A    between atoms: _19  and  _22
REMARK    8  A    between atoms: _22  and  _23
REMARK    9  A    between atoms: _28  and  _29
REMARK   10  A    between atoms: _31  and  _33
REMARK   11  A    between atoms: _33  and  _34
REMARK   12  A    between atoms: _33  and  _36
REMARK   13  A    between atoms: _36  and  _37
REMARK   14  A    between atoms: _40  and  _41
REMARK   15  A    between atoms: _46  and  _48
REMARK   16  A    between atoms: _48  and  _49
REMARK   17  A    between atoms: _48  and  _51
REMARK   18  A    between atoms: _51  and  _52
REMARK   19  A    between atoms: _57  and  _59
REMARK   20  A    between atoms: _59  and  _60
REMARK   21  A    between atoms: _63  and  _65
REMARK   22  A    between atoms: _65  and  _66
REMARK   23  A    between atoms: _65  and  _68
REMARK   24  A    between atoms: _68  and  _69
REMARK   25  A    between atoms: _74  and  _76
REMARK   26  A    between atoms: _76  and  _77
REMARK   27  A    between atoms: _76  and  _79
REMARK   28  A    between atoms: _79  and  _80
REMARK   29  A    between atoms: _83  and  _85
REMARK   30  A    between atoms: _85  and  _86
REMARK   31  A    between atoms: _85  and  _88
REMARK   32  A    between atoms: _88  and  _89
REMARK   33  A    between atoms: _89  and  _90
REMARK   34  A    between atoms: _95  and  _97
REMARK   35  A    between atoms: _97  and  _98
REMARK   36  A    between atoms: _97  and  _100
REMARK   37  A    between atoms: _100  and  _101
REMARK   38  A    between atoms: _107  and  _109
REMARK   39  A    between atoms: _120  and  _123
REMARK   40  A    between atoms: _123  and  _124
REMARK   41  A    between atoms: _132  and  _133
REMARK   42  A    between atoms: _141  and  _143
REMARK   43  A    between atoms: _143  and  _144
REMARK   44  A    between atoms: _143  and  _146
REMARK   45  A    between atoms: _146  and  _147
REMARK   46  A    between atoms: _147  and  _148
REMARK   47  A    between atoms: _151  and  _153
REMARK   48  A    between atoms: _153  and  _154
REMARK   49  A    between atoms: _153  and  _156
REMARK   50  A    between atoms: _156  and  _157
REMARK   51  A    between atoms: _162  and  _164
REMARK   52  A    between atoms: _164  and  _165
REMARK   53  A    between atoms: _164  and  _167
REMARK   54  A    between atoms: _167  and  _168
REMARK   55  A    between atoms: _168  and  _169
REMARK   56  A    between atoms: _172  and  _174
REMARK   57  A    between atoms: _174  and  _175
REMARK   58  A    between atoms: _174  and  _177
REMARK   59  A    between atoms: _177  and  _178
REMARK   60  A    between atoms: _181  and  _183
REMARK   61  A    between atoms: _183  and  _184
REMARK   62  A    between atoms: _183  and  _186
REMARK   63  A    between atoms: _186  and  _187
REMARK   64  A    between atoms: _188  and  ZN_403
REMARK   65  A    between atoms: _192  and  _194
REMARK   66  A    between atoms: _194  and  _195
REMARK   67  A    between atoms: _194  and  _197
REMARK   68  A    between atoms: _197  and  _198
REMARK   69  A    between atoms: _201  and  _203
REMARK   70  A    between atoms: _203  and  _204
REMARK   71  A    between atoms: _203  and  _206
REMARK   72  A    between atoms: _209  and  _211
REMARK   73  A    between atoms: _211  and  _212
REMARK   74  A    between atoms: _211  and  _214
REMARK   75  A    between atoms: _214  and  _215
REMARK   76  A    between atoms: _220  and  _222
REMARK   77  A    between atoms: _222  and  _223
REMARK   78  A    between atoms: _222  and  _225
REMARK   79  A    between atoms: _225  and  _226
REMARK   80  A    between atoms: _232  and  _234
REMARK   81  A    between atoms: _234  and  _235
REMARK   82  A    between atoms: _234  and  _237
REMARK   83  A    between atoms: _240  and  _242
REMARK   84  A    between atoms: _242  and  _243
REMARK   85  A    between atoms: _242  and  _245
REMARK   86  A    between atoms: _245  and  _246
REMARK   87  A    between atoms: _249  and  _251
REMARK   88  A    between atoms: _251  and  _252
REMARK   89  A    between atoms: _255  and  _257
REMARK   90  A    between atoms: _257  and  _258
REMARK   91  A    between atoms: _257  and  _260
REMARK   92  A    between atoms: _263  and  _265
REMARK   93  A    between atoms: _265  and  _266
REMARK   94  A    between atoms: _265  and  _268
REMARK   95  A    between atoms: _268  and  _269
REMARK   96  A    between atoms: _272  and  _274
REMARK   97  A    between atoms: _274  and  _275
REMARK   98  A    between atoms: _277  and  _279
REMARK   99  A    between atoms: _279  and  _280
REMARK  100  A    between atoms: _279  and  _282
REMARK  101  A    between atoms: _282  and  _283
REMARK  102  A    between atoms: _285  and  _287
REMARK  103  A    between atoms: _287  and  _288
REMARK  104  A    between atoms: _287  and  _290
REMARK  105  A    between atoms: _290  and  _291
REMARK  106  A    between atoms: _294  and  _296
REMARK  107  A    between atoms: _296  and  _297
REMARK  108  A    between atoms: _296  and  _299
REMARK  109  A    between atoms: _299  and  _300
REMARK  110  A    between atoms: _303  and  _305
REMARK  111  A    between atoms: _305  and  _306
REMARK  112  A    between atoms: _305  and  _308
REMARK  113  A    between atoms: _308  and  _309
REMARK  114  A    between atoms: _313  and  _314
REMARK  115  A    between atoms: _320  and  _321
REMARK  116  A    between atoms: _326  and  _328
REMARK  117  A    between atoms: _328  and  _329
REMARK  118  A    between atoms: _328  and  _331
REMARK  119  A    between atoms: _331  and  _332
REMARK  120  A    between atoms: _335  and  _337
REMARK  121  A    between atoms: _337  and  _338
REMARK  122  A    between atoms: _337  and  _340
REMARK  123  A    between atoms: _340  and  _341
REMARK  124  A    between atoms: _344  and  _346
REMARK  125  A    between atoms: _346  and  _347
REMARK  126  A    between atoms: _346  and  _349
REMARK  127  A    between atoms: _351  and  _353
REMARK  128  A    between atoms: _353  and  _354
REMARK  129  A    between atoms: _353  and  _356
REMARK  130  A    between atoms: _359  and  _361
REMARK  131  A    between atoms: _361  and  _362
REMARK  132  A    between atoms: _361  and  _364
REMARK  133  A    between atoms: _364  and  _365
REMARK  134  A    between atoms: _375  and  _377
REMARK  135  A    between atoms: _377  and  _378
REMARK  136  A    between atoms: _377  and  _380
REMARK  137  A    between atoms: _380  and  _381
REMARK  138  A    between atoms: _386  and  _388
REMARK  139  A    between atoms: _388  and  _389
REMARK  140  A    between atoms: _388  and  _391
REMARK  141  A    between atoms: _391  and  _392
REMARK  142  A    between atoms: _392  and  _393
REMARK  143  A    between atoms: _393  and  _394
REMARK                            x       y       z     vdW  Elec       q    Type
REMARK                         _______ _______ _______ _____ _____    ______ ____
ROOT
ATOM      1  CB  ASN A   1       2.002   5.464  10.332  0.00  0.00    +0.110 C 
ENDROOT
BRANCH   1   2
ATOM      2  CG  ASN A   1       3.511   5.587  10.154  0.00  0.00    +0.221 C 
ATOM      3  OD1 ASN A   1       4.145   6.479  10.709  0.00  0.00    -0.275 OA
ATOM      4  ND2 ASN A   1       4.094   4.666   9.377  0.00  0.00    -0.329 N 
ATOM      5 HD21 ASN A   1       5.123   4.690   9.225  0.00  0.00    +0.145 HD
ATOM      6 HD22 ASN A   1       3.518   3.927   8.925  0.00  0.00    +0.145 HD
ENDBRANCH   1   2
BRANCH   1   7
ATOM      7  CA  ASN A   1       1.467   6.330  11.471  0.00  0.00    +0.142 C 
BRANCH   7   8
ATOM      8  N   ASN A   1       1.777   7.742  11.219  0.00  0.00    -0.239 NA
ATOM      9  H   ASN A   1       2.687   7.990  10.781  0.00  0.00    +0.142 HD
ENDBRANCH   7   8
BRANCH   7  10
ATOM     10  C   ASN A   1       2.036   5.899  12.823  0.00  0.00    +0.225 C 
ATOM     11  O   ASN A   1       2.717   4.862  12.945  0.00  0.00    -0.287 OA
ENDBRANCH   7  10
ENDBRANCH   1   7
TORSDOF 4
REMARK  Name = ../refined-set-2016/2weo/2weo_pocket.pdb
REMARK  143 active torsions:
REMARK  status: ('A' for Active; 'I' for Inactive)
REMARK    1  A    between atoms: _1  and  _3
REMARK    2  A    between atoms: _3  and  _4
REMARK    3  A    between atoms: _3  and  _6
REMARK    4  A    between atoms: _6  and  _7
REMARK    5  A    between atoms: _17  and  _19
REMARK    6  A    between atoms: _19  and  _20
REMARK    7  A    between atoms: _19  and  _22
REMARK    8  A    between atoms: _22  and  _23
REMARK    9  A    between atoms: _28  and  _29
REMARK   10  A    between atoms: _31  and  _33
REMARK   11  A    between atoms: _33  and  _34
REMARK   12  A    between atoms: _33  and  _36
REMARK   13  A    between atoms: _36  and  _37
REMARK   14  A    between atoms: _40  and  _41
REMARK   15  A    between atoms: _46  and  _48
REMARK   16  A    between atoms: _48  and  _49
REMARK   17  A    between atoms: _48  and  _51
REMARK   18  A    between atoms: _51  and  _52
REMARK   19  A    between atoms: _57  and  _59
REMARK   20  A    between atoms: _59  and  _60
REMARK   21  A    between atoms: _63  and  _65
REMARK   22  A    between atoms: _65  and  _66
REMARK   23  A    between atoms: _65  and  _68
REMARK   24  A    between atoms: _68  and  _69
REMARK   25  A    between atoms: _74  and  _76
REMARK   26  A    between atoms: _76  and  _77
REMARK   27  A    between atoms: _76  and  _79
REMARK   28  A    between atoms: _79  and  _80
REMARK   29  A    between atoms: _83  and  _85
REMARK   30  A    between atoms: _85  and  _86
REMARK   31  A    between atoms: _85  and  _88
REMARK   32  A    between atoms: _88  and  _89
REMARK   33  A    between atoms: _89  and  _90
REMARK   34  A    between atoms: _95  and  _97
REMARK   35  A    between atoms: _97  and  _98
REMARK   36  A    between atoms: _97  and  _100
REMARK   37  A    between atoms: _100  and  _101
REMARK   38  A    between atoms: _107  and  _109
REMARK   39  A    between atoms: _120  and  _123
REMARK   40  A    between atoms: _123  and  _124
REMARK   41  A    between atoms: _132  and  _133
REMARK   42  A    between atoms: _141  and  _143
REMARK   43  A    between atoms: _143  and  _144
REMARK   44  A    between atoms: _143  and  _146
REMARK   45  A    between atoms: _146  and  _147
REMARK   46  A    between atoms: _147  and  _148
REMARK   47  A    between atoms: _151  and  _153
REMARK   48  A    between atoms: _153  and  _154
REMARK   49  A    between atoms: _153  and  _156
REMARK   50  A    between atoms: _156  and  _157
REMARK   51  A    between atoms: _162  and  _164
REMARK   52  A    between atoms: _164  and  _165
REMARK   53  A    between atoms: _164  and  _167
REMARK   54  A    between atoms: _167  and  _168
REMARK   55  A    between atoms: _168  and  _169
REMARK   56  A    between atoms: _172  and  _174
REMARK   57  A    between atoms: _174  and  _175
REMARK   58  A    between atoms: _174  and  _177
REMARK   59  A    between atoms: _177  and  _178
REMARK   60  A    between atoms: _181  and  _183
REMARK   61  A    between atoms: _183  and  _184
REMARK   62  A    between atoms: _183  and  _186
REMARK   63  A    between atoms: _186  and  _187
REMARK   64  A    between atoms: _188  and  ZN_403
REMARK   65  A    between atoms: _192  and  _194
REMARK   66  A    between atoms: _194  and  _195
REMARK   67  A    between atoms: _194  and  _197
REMARK   68  A    between atoms: _197  and  _198
REMARK   69  A    between atoms: _201  and  _203
REMARK   70  A    between atoms: _203  and  _204
REMARK   71  A    between atoms: _203  and  _206
REMARK   72  A    between atoms: _209  and  _211
REMARK   73  A    between atoms: _211  and  _212
REMARK   74  A    between atoms: _211  and  _214
REMARK   75  A    between atoms: _214  and  _215
REMARK   76  A    between atoms: _220  and  _222
REMARK   77  A    between atoms: _222  and  _223
REMARK   78  A    between atoms: _222  and  _225
REMARK   79  A    between atoms: _225  and  _226
REMARK   80  A    between atoms: _232  and  _234
REMARK   81  A    between atoms: _234  and  _235
REMARK   82  A    between atoms: _234  and  _237
REMARK   83  A    between atoms: _240  and  _242
REMARK   84  A    between atoms: _242  and  _243
REMARK   85  A    between atoms: _242  and  _245
REMARK   86  A    between atoms: _245  and  _246
REMARK   87  A    between atoms: _249  and  _251
REMARK   88  A    between atoms: _251  and  _252
REMARK   89  A    between atoms: _255  and  _257
REMARK   90  A    between atoms: _257  and  _258
REMARK   91  A    between atoms: _257  and  _260
REMARK   92  A    between atoms: _263  and  _265
REMARK   93  A    between atoms: _265  and  _266
REMARK   94  A    between atoms: _265  and  _268
REMARK   95  A    between atoms: _268  and  _269
REMARK   96  A    between atoms: _272  and  _274
REMARK   97  A    between atoms: _274  and  _275
REMARK   98  A    between atoms: _277  and  _279
REMARK   99  A    between atoms: _279  and  _280
REMARK  100  A    between atoms: _279  and  _282
REMARK  101  A    between atoms: _282  and  _283
REMARK  102  A    between atoms: _285  and  _287
REMARK  103  A    between atoms: _287  and  _288
REMARK  104  A    between atoms: _287  and  _290
REMARK  105  A    between atoms: _290  and  _291
REMARK  106  A    between atoms: _294  and  _296
REMARK  107  A    between atoms: _296  and  _297
REMARK  108  A    between atoms: _296  and  _299
REMARK  109  A    between atoms: _299  and  _300
REMARK  110  A    between atoms: _303  and  _305
REMARK  111  A    between atoms: _305  and  _306
REMARK  112  A    between atoms: _305  and  _308
REMARK  113  A    between atoms: _308  and  _309
REMARK  114  A    between atoms: _313  and  _314
REMARK  115  A    between atoms: _320  and  _321
REMARK  116  A    between atoms: _326  and  _328
REMARK  117  A    between atoms: _328  and  _329
REMARK  118  A    between atoms: _328  and  _331
REMARK  119  A    between atoms: _331  and  _332
REMARK  120  A    between atoms: _335  and  _337
REMARK  121  A    between atoms: _337  and  _338
REMARK  122  A    between atoms: _337  and  _340
REMARK  123  A    between atoms: _340  and  _341
REMARK  124  A    between atoms: _344  and  _346
REMARK  125  A    between atoms: _346  and  _347
REMARK  126  A    between atoms: _346  and  _349
REMARK  127  A    between atoms: _351  and  _353
REMARK  128  A    between atoms: _353  and  _354
REMARK  129  A    between atoms: _353  and  _356
REMARK  130  A    between atoms: _359  and  _361
REMARK  131  A    between atoms: _361  and  _362
REMARK  132  A    between atoms: _361  and  _364
REMARK  133  A    between atoms: _364  and  _365
REMARK  134  A    between atoms: _375  and  _377
REMARK  135  A    between atoms: _377  and  _378
REMARK  136  A    between atoms: _377  and  _380
REMARK  137  A    between atoms: _380  and  _381
REMARK  138  A    between atoms: _386  and  _388
REMARK  139  A    between atoms: _388  and  _389
REMARK  140  A    between atoms: _388  and  _391
REMARK  141  A    between atoms: _391  and  _392
REMARK  142  A    between atoms: _392  and  _393
REMARK  143  A    between atoms: _393  and  _394
REMARK                            x       y       z     vdW  Elec       q    Type
REMARK                         _______ _______ _______ _____ _____    ______ ____
ROOT
ATOM      1  NE  ARG A   1      -2.245   2.096  21.115  0.00  0.00    -0.265 N 
ATOM      2  CZ  ARG A   1      -2.427   1.089  21.961  0.00  0.00    +0.342 C 
ATOM      3  NH2 ARG A   1      -3.645   0.858  22.451  0.00  0.00    -0.292 N 
ATOM      4 HH21 ARG A   1      -3.798   0.072  23.114  0.00  0.00    +0.255 HD
ATOM      5 HH22 ARG A   1      -4.442   1.464  22.170  0.00  0.00    +0.255 HD
ATOM      6  NH1 ARG A   1      -1.420   0.318  22.356  0.00  0.00    -0.292 N 
ATOM      7 HH11 ARG A   1      -1.593  -0.464  23.020  0.00  0.00    +0.255 HD
ATOM      8 HH12 ARG A   1      -0.459   0.496  22.002  0.00  0.00    +0.255 HD
ATOM      9  HE  ARG A   1      -3.069   2.691  20.894  0.00  0.00    +0.259 HD
ENDROOT
BRANCH   1  10
ATOM     10  CD  ARG A   1      -0.974   2.436  20.468  0.00  0.00    +0.174 C 
BRANCH  10  11
ATOM     11  CG  ARG A   1      -1.079   3.788  19.794  0.00  0.00    +0.045 C 
BRANCH  11  12
ATOM     12  CB  ARG A   1       0.042   3.992  18.797  0.00  0.00    +0.029 C 
BRANCH  12  13
ATOM     13  CA  ARG A   1       0.137   5.429  18.267  0.00  0.00    +0.133 C 
BRANCH  13  14
ATOM     14  N   ARG A   1       1.090   5.502  17.159  0.00  0.00    -0.239 NA
ATOM     15  H   ARG A   1       1.893   4.842  17.147  0.00  0.00    +0.142 HD
ENDBRANCH  13  14
BRANCH  13  16
ATOM     16  C   ARG A   1       0.644   6.345  19.388  0.00  0.00    +0.224 C 
ATOM     17  O   ARG A   1       1.838   6.349  19.669  0.00  0.00    -0.287 OA
ENDBRANCH  13  16
ENDBRANCH  12  13
ENDBRANCH  11  12
ENDBRANCH  10  11
ENDBRANCH   1  10
TORSDOF 6
REMARK  Name = ../refined-set-2016/2weo/2weo_pocket.pdb
REMARK  143 active torsions:
REMARK  status: ('A' for Active; 'I' for Inactive)
REMARK    1  A    between atoms: _1  and  _3
REMARK    2  A    between atoms: _3  and  _4
REMARK    3  A    between atoms: _3  and  _6
REMARK    4  A    between atoms: _6  and  _7
REMARK    5  A    between atoms: _17  and  _19
REMARK    6  A    between atoms: _19  and  _20
REMARK    7  A    between atoms: _19  and  _22
REMARK    8  A    between atoms: _22  and  _23
REMARK    9  A    between atoms: _28  and  _29
REMARK   10  A    between atoms: _31  and  _33
REMARK   11  A    between atoms: _33  and  _34
REMARK   12  A    between atoms: _33  and  _36
REMARK   13  A    between atoms: _36  and  _37
REMARK   14  A    between atoms: _40  and  _41
REMARK   15  A    between atoms: _46  and  _48
REMARK   16  A    between atoms: _48  and  _49
REMARK   17  A    between atoms: _48  and  _51
REMARK   18  A    between atoms: _51  and  _52
REMARK   19  A    between atoms: _57  and  _59
REMARK   20  A    between atoms: _59  and  _60
REMARK   21  A    between atoms: _63  and  _65
REMARK   22  A    between atoms: _65  and  _66
REMARK   23  A    between atoms: _65  and  _68
REMARK   24  A    between atoms: _68  and  _69
REMARK   25  A    between atoms: _74  and  _76
REMARK   26  A    between atoms: _76  and  _77
REMARK   27  A    between atoms: _76  and  _79
REMARK   28  A    between atoms: _79  and  _80
REMARK   29  A    between atoms: _83  and  _85
REMARK   30  A    between atoms: _85  and  _86
REMARK   31  A    between atoms: _85  and  _88
REMARK   32  A    between atoms: _88  and  _89
REMARK   33  A    between atoms: _89  and  _90
REMARK   34  A    between atoms: _95  and  _97
REMARK   35  A    between atoms: _97  and  _98
REMARK   36  A    between atoms: _97  and  _100
REMARK   37  A    between atoms: _100  and  _101
REMARK   38  A    between atoms: _107  and  _109
REMARK   39  A    between atoms: _120  and  _123
REMARK   40  A    between atoms: _123  and  _124
REMARK   41  A    between atoms: _132  and  _133
REMARK   42  A    between atoms: _141  and  _143
REMARK   43  A    between atoms: _143  and  _144
REMARK   44  A    between atoms: _143  and  _146
REMARK   45  A    between atoms: _146  and  _147
REMARK   46  A    between atoms: _147  and  _148
REMARK   47  A    between atoms: _151  and  _153
REMARK   48  A    between atoms: _153  and  _154
REMARK   49  A    between atoms: _153  and  _156
REMARK   50  A    between atoms: _156  and  _157
REMARK   51  A    between atoms: _162  and  _164
REMARK   52  A    between atoms: _164  and  _165
REMARK   53  A    between atoms: _164  and  _167
REMARK   54  A    between atoms: _167  and  _168
REMARK   55  A    between atoms: _168  and  _169
REMARK   56  A    between atoms: _172  and  _174
REMARK   57  A    between atoms: _174  and  _175
REMARK   58  A    between atoms: _174  and  _177
REMARK   59  A    between atoms: _177  and  _178
REMARK   60  A    between atoms: _181  and  _183
REMARK   61  A    between atoms: _183  and  _184
REMARK   62  A    between atoms: _183  and  _186
REMARK   63  A    between atoms: _186  and  _187
REMARK   64  A    between atoms: _188  and  ZN_403
REMARK   65  A    between atoms: _192  and  _194
REMARK   66  A    between atoms: _194  and  _195
REMARK   67  A    between atoms: _194  and  _197
REMARK   68  A    between atoms: _197  and  _198
REMARK   69  A    between atoms: _201  and  _203
REMARK   70  A    between atoms: _203  and  _204
REMARK   71  A    between atoms: _203  and  _206
REMARK   72  A    between atoms: _209  and  _211
REMARK   73  A    between atoms: _211  and  _212
REMARK   74  A    between atoms: _211  and  _214
REMARK   75  A    between atoms: _214  and  _215
REMARK   76  A    between atoms: _220  and  _222
REMARK   77  A    between atoms: _222  and  _223
REMARK   78  A    between atoms: _222  and  _225
REMARK   79  A    between atoms: _225  and  _226
REMARK   80  A    between atoms: _232  and  _234
REMARK   81  A    between atoms: _234  and  _235
REMARK   82  A    between atoms: _234  and  _237
REMARK   83  A    between atoms: _240  and  _242
REMARK   84  A    between atoms: _242  and  _243
REMARK   85  A    between atoms: _242  and  _245
REMARK   86  A    between atoms: _245  and  _246
REMARK   87  A    between atoms: _249  and  _251
REMARK   88  A    between atoms: _251  and  _252
REMARK   89  A    between atoms: _255  and  _257
REMARK   90  A    between atoms: _257  and  _258
REMARK   91  A    between atoms: _257  and  _260
REMARK   92  A    between atoms: _263  and  _265
REMARK   93  A    between atoms: _265  and  _266
REMARK   94  A    between atoms: _265  and  _268
REMARK   95  A    between atoms: _268  and  _269
REMARK   96  A    between atoms: _272  and  _274
REMARK   97  A    between atoms: _274  and  _275
REMARK   98  A    between atoms: _277  and  _279
REMARK   99  A    between atoms: _279  and  _280
REMARK  100  A    between atoms: _279  and  _282
REMARK  101  A    between atoms: _282  and  _283
REMARK  102  A    between atoms: _285  and  _287
REMARK  103  A    between atoms: _287  and  _288
REMARK  104  A    between atoms: _287  and  _290
REMARK  105  A    between atoms: _290  and  _291
REMARK  106  A    between atoms: _294  and  _296
REMARK  107  A    between atoms: _296  and  _297
REMARK  108  A    between atoms: _296  and  _299
REMARK  109  A    between atoms: _299  and  _300
REMARK  110  A    between atoms: _303  and  _305
REMARK  111  A    between atoms: _305  and  _306
REMARK  112  A    between atoms: _305  and  _308
REMARK  113  A    between atoms: _308  and  _309
REMARK  114  A    between atoms: _313  and  _314
REMARK  115  A    between atoms: _320  and  _321
REMARK  116  A    between atoms: _326  and  _328
REMARK  117  A    between atoms: _328  and  _329
REMARK  118  A    between atoms: _328  and  _331
REMARK  119  A    between atoms: _331  and  _332
REMARK  120  A    between atoms: _335  and  _337
REMARK  121  A    between atoms: _337  and  _338
REMARK  122  A    between atoms: _337  and  _340
REMARK  123  A    between atoms: _340  and  _341
REMARK  124  A    between atoms: _344  and  _346
REMARK  125  A    between atoms: _346  and  _347
REMARK  126  A    between atoms: _346  and  _349
REMARK  127  A    between atoms: _351  and  _353
REMARK  128  A    between atoms: _353  and  _354
REMARK  129  A    between atoms: _353  and  _356
REMARK  130  A    between atoms: _359  and  _361
REMARK  131  A    between atoms: _361  and  _362
REMARK  132  A    between atoms: _361  and  _364
REMARK  133  A    between atoms: _364  and  _365
REMARK  134  A    between atoms: _375  and  _377
REMARK  135  A    between atoms: _377  and  _378
REMARK  136  A    between atoms: _377  and  _380
REMARK  137  A    between atoms: _380  and  _381
REMARK  138  A    between atoms: _386  and  _388
REMARK  139  A    between atoms: _388  and  _389
REMARK  140  A    between atoms: _388  and  _391
REMARK  141  A    between atoms: _391  and  _392
REMARK  142  A    between atoms: _392  and  _393
REMARK  143  A    between atoms: _393  and  _394
REMARK                            x       y       z     vdW  Elec       q    Type
REMARK                         _______ _______ _______ _____ _____    ______ ____
ROOT
ATOM      1  O   HOH     1       0.716  -5.377  10.344  0.00  0.00    +0.000 OA
ENDROOT
TORSDOF 0
REMARK  Name = ../refined-set-2016/2weo/2weo_pocket.pdb
REMARK  143 active torsions:
REMARK  status: ('A' for Active; 'I' for Inactive)
REMARK    1  A    between atoms: _1  and  _3
REMARK    2  A    between atoms: _3  and  _4
REMARK    3  A    between atoms: _3  and  _6
REMARK    4  A    between atoms: _6  and  _7
REMARK    5  A    between atoms: _17  and  _19
REMARK    6  A    between atoms: _19  and  _20
REMARK    7  A    between atoms: _19  and  _22
REMARK    8  A    between atoms: _22  and  _23
REMARK    9  A    between atoms: _28  and  _29
REMARK   10  A    between atoms: _31  and  _33
REMARK   11  A    between atoms: _33  and  _34
REMARK   12  A    between atoms: _33  and  _36
REMARK   13  A    between atoms: _36  and  _37
REMARK   14  A    between atoms: _40  and  _41
REMARK   15  A    between atoms: _46  and  _48
REMARK   16  A    between atoms: _48  and  _49
REMARK   17  A    between atoms: _48  and  _51
REMARK   18  A    between atoms: _51  and  _52
REMARK   19  A    between atoms: _57  and  _59
REMARK   20  A    between atoms: _59  and  _60
REMARK   21  A    between atoms: _63  and  _65
REMARK   22  A    between atoms: _65  and  _66
REMARK   23  A    between atoms: _65  and  _68
REMARK   24  A    between atoms: _68  and  _69
REMARK   25  A    between atoms: _74  and  _76
REMARK   26  A    between atoms: _76  and  _77
REMARK   27  A    between atoms: _76  and  _79
REMARK   28  A    between atoms: _79  and  _80
REMARK   29  A    between atoms: _83  and  _85
REMARK   30  A    between atoms: _85  and  _86
REMARK   31  A    between atoms: _85  and  _88
REMARK   32  A    between atoms: _88  and  _89
REMARK   33  A    between atoms: _89  and  _90
REMARK   34  A    between atoms: _95  and  _97
REMARK   35  A    between atoms: _97  and  _98
REMARK   36  A    between atoms: _97  and  _100
REMARK   37  A    between atoms: _100  and  _101
REMARK   38  A    between atoms: _107  and  _109
REMARK   39  A    between atoms: _120  and  _123
REMARK   40  A    between atoms: _123  and  _124
REMARK   41  A    between atoms: _132  and  _133
REMARK   42  A    between atoms: _141  and  _143
REMARK   43  A    between atoms: _143  and  _144
REMARK   44  A    between atoms: _143  and  _146
REMARK   45  A    between atoms: _146  and  _147
REMARK   46  A    between atoms: _147  and  _148
REMARK   47  A    between atoms: _151  and  _153
REMARK   48  A    between atoms: _153  and  _154
REMARK   49  A    between atoms: _153  and  _156
REMARK   50  A    between atoms: _156  and  _157
REMARK   51  A    between atoms: _162  and  _164
REMARK   52  A    between atoms: _164  and  _165
REMARK   53  A    between atoms: _164  and  _167
REMARK   54  A    between atoms: _167  and  _168
REMARK   55  A    between atoms: _168  and  _169
REMARK   56  A    between atoms: _172  and  _174
REMARK   57  A    between atoms: _174  and  _175
REMARK   58  A    between atoms: _174  and  _177
REMARK   59  A    between atoms: _177  and  _178
REMARK   60  A    between atoms: _181  and  _183
REMARK   61  A    between atoms: _183  and  _184
REMARK   62  A    between atoms: _183  and  _186
REMARK   63  A    between atoms: _186  and  _187
REMARK   64  A    between atoms: _188  and  ZN_403
REMARK   65  A    between atoms: _192  and  _194
REMARK   66  A    between atoms: _194  and  _195
REMARK   67  A    between atoms: _194  and  _197
REMARK   68  A    between atoms: _197  and  _198
REMARK   69  A    between atoms: _201  and  _203
REMARK   70  A    between atoms: _203  and  _204
REMARK   71  A    between atoms: _203  and  _206
REMARK   72  A    between atoms: _209  and  _211
REMARK   73  A    between atoms: _211  and  _212
REMARK   74  A    between atoms: _211  and  _214
REMARK   75  A    between atoms: _214  and  _215
REMARK   76  A    between atoms: _220  and  _222
REMARK   77  A    between atoms: _222  and  _223
REMARK   78  A    between atoms: _222  and  _225
REMARK   79  A    between atoms: _225  and  _226
REMARK   80  A    between atoms: _232  and  _234
REMARK   81  A    between atoms: _234  and  _235
REMARK   82  A    between atoms: _234  and  _237
REMARK   83  A    between atoms: _240  and  _242
REMARK   84  A    between atoms: _242  and  _243
REMARK   85  A    between atoms: _242  and  _245
REMARK   86  A    between atoms: _245  and  _246
REMARK   87  A    between atoms: _249  and  _251
REMARK   88  A    between atoms: _251  and  _252
REMARK   89  A    between atoms: _255  and  _257
REMARK   90  A    between atoms: _257  and  _258
REMARK   91  A    between atoms: _257  and  _260
REMARK   92  A    between atoms: _263  and  _265
REMARK   93  A    between atoms: _265  and  _266
REMARK   94  A    between atoms: _265  and  _268
REMARK   95  A    between atoms: _268  and  _269
REMARK   96  A    between atoms: _272  and  _274
REMARK   97  A    between atoms: _274  and  _275
REMARK   98  A    between atoms: _277  and  _279
REMARK   99  A    between atoms: _279  and  _280
REMARK  100  A    between atoms: _279  and  _282
REMARK  101  A    between atoms: _282  and  _283
REMARK  102  A    between atoms: _285  and  _287
REMARK  103  A    between atoms: _287  and  _288
REMARK  104  A    between atoms: _287  and  _290
REMARK  105  A    between atoms: _290  and  _291
REMARK  106  A    between atoms: _294  and  _296
REMARK  107  A    between atoms: _296  and  _297
REMARK  108  A    between atoms: _296  and  _299
REMARK  109  A    between atoms: _299  and  _300
REMARK  110  A    between atoms: _303  and  _305
REMARK  111  A    between atoms: _305  and  _306
REMARK  112  A    between atoms: _305  and  _308
REMARK  113  A    between atoms: _308  and  _309
REMARK  114  A    between atoms: _313  and  _314
REMARK  115  A    between atoms: _320  and  _321
REMARK  116  A    between atoms: _326  and  _328
REMARK  117  A    between atoms: _328  and  _329
REMARK  118  A    between atoms: _328  and  _331
REMARK  119  A    between atoms: _331  and  _332
REMARK  120  A    between atoms: _335  and  _337
REMARK  121  A    between atoms: _337  and  _338
REMARK  122  A    between atoms: _337  and  _340
REMARK  123  A    between atoms: _340  and  _341
REMARK  124  A    between atoms: _344  and  _346
REMARK  125  A    between atoms: _346  and  _347
REMARK  126  A    between atoms: _346  and  _349
REMARK  127  A    between atoms: _351  and  _353
REMARK  128  A    between atoms: _353  and  _354
REMARK  129  A    between atoms: _353  and  _356
REMARK  130  A    between atoms: _359  and  _361
REMARK  131  A    between atoms: _361  and  _362
REMARK  132  A    between atoms: _361  and  _364
REMARK  133  A    between atoms: _364  and  _365
REMARK  134  A    between atoms: _375  and  _377
REMARK  135  A    between atoms: _377  and  _378
REMARK  136  A    between atoms: _377  and  _380
REMARK  137  A    between atoms: _380  and  _381
REMARK  138  A    between atoms: _386  and  _388
REMARK  139  A    between atoms: _388  and  _389
REMARK  140  A    between atoms: _388  and  _391
REMARK  141  A    between atoms: _391  and  _392
REMARK  142  A    between atoms: _392  and  _393
REMARK  143  A    between atoms: _393  and  _394
REMARK                            x       y       z     vdW  Elec       q    Type
REMARK                         _______ _______ _______ _____ _____    ______ ____
ROOT
ATOM      1  O   HOH     1       8.085  -9.676   8.629  0.00  0.00    +0.000 OA
ENDROOT
TORSDOF 0
REMARK  Name = ../refined-set-2016/2weo/2weo_pocket.pdb
REMARK  143 active torsions:
REMARK  status: ('A' for Active; 'I' for Inactive)
REMARK    1  A    between atoms: _1  and  _3
REMARK    2  A    between atoms: _3  and  _4
REMARK    3  A    between atoms: _3  and  _6
REMARK    4  A    between atoms: _6  and  _7
REMARK    5  A    between atoms: _17  and  _19
REMARK    6  A    between atoms: _19  and  _20
REMARK    7  A    between atoms: _19  and  _22
REMARK    8  A    between atoms: _22  and  _23
REMARK    9  A    between atoms: _28  and  _29
REMARK   10  A    between atoms: _31  and  _33
REMARK   11  A    between atoms: _33  and  _34
REMARK   12  A    between atoms: _33  and  _36
REMARK   13  A    between atoms: _36  and  _37
REMARK   14  A    between atoms: _40  and  _41
REMARK   15  A    between atoms: _46  and  _48
REMARK   16  A    between atoms: _48  and  _49
REMARK   17  A    between atoms: _48  and  _51
REMARK   18  A    between atoms: _51  and  _52
REMARK   19  A    between atoms: _57  and  _59
REMARK   20  A    between atoms: _59  and  _60
REMARK   21  A    between atoms: _63  and  _65
REMARK   22  A    between atoms: _65  and  _66
REMARK   23  A    between atoms: _65  and  _68
REMARK   24  A    between atoms: _68  and  _69
REMARK   25  A    between atoms: _74  and  _76
REMARK   26  A    between atoms: _76  and  _77
REMARK   27  A    between atoms: _76  and  _79
REMARK   28  A    between atoms: _79  and  _80
REMARK   29  A    between atoms: _83  and  _85
REMARK   30  A    between atoms: _85  and  _86
REMARK   31  A    between atoms: _85  and  _88
REMARK   32  A    between atoms: _88  and  _89
REMARK   33  A    between atoms: _89  and  _90
REMARK   34  A    between atoms: _95  and  _97
REMARK   35  A    between atoms: _97  and  _98
REMARK   36  A    between atoms: _97  and  _100
REMARK   37  A    between atoms: _100  and  _101
REMARK   38  A    between atoms: _107  and  _109
REMARK   39  A    between atoms: _120  and  _123
REMARK   40  A    between atoms: _123  and  _124
REMARK   41  A    between atoms: _132  and  _133
REMARK   42  A    between atoms: _141  and  _143
REMARK   43  A    between atoms: _143  and  _144
REMARK   44  A    between atoms: _143  and  _146
REMARK   45  A    between atoms: _146  and  _147
REMARK   46  A    between atoms: _147  and  _148
REMARK   47  A    between atoms: _151  and  _153
REMARK   48  A    between atoms: _153  and  _154
REMARK   49  A    between atoms: _153  and  _156
REMARK   50  A    between atoms: _156  and  _157
REMARK   51  A    between atoms: _162  and  _164
REMARK   52  A    between atoms: _164  and  _165
REMARK   53  A    between atoms: _164  and  _167
REMARK   54  A    between atoms: _167  and  _168
REMARK   55  A    between atoms: _168  and  _169
REMARK   56  A    between atoms: _172  and  _174
REMARK   57  A    between atoms: _174  and  _175
REMARK   58  A    between atoms: _174  and  _177
REMARK   59  A    between atoms: _177  and  _178
REMARK   60  A    between atoms: _181  and  _183
REMARK   61  A    between atoms: _183  and  _184
REMARK   62  A    between atoms: _183  and  _186
REMARK   63  A    between atoms: _186  and  _187
REMARK   64  A    between atoms: _188  and  ZN_403
REMARK   65  A    between atoms: _192  and  _194
REMARK   66  A    between atoms: _194  and  _195
REMARK   67  A    between atoms: _194  and  _197
REMARK   68  A    between atoms: _197  and  _198
REMARK   69  A    between atoms: _201  and  _203
REMARK   70  A    between atoms: _203  and  _204
REMARK   71  A    between atoms: _203  and  _206
REMARK   72  A    between atoms: _209  and  _211
REMARK   73  A    between atoms: _211  and  _212
REMARK   74  A    between atoms: _211  and  _214
REMARK   75  A    between atoms: _214  and  _215
REMARK   76  A    between atoms: _220  and  _222
REMARK   77  A    between atoms: _222  and  _223
REMARK   78  A    between atoms: _222  and  _225
REMARK   79  A    between atoms: _225  and  _226
REMARK   80  A    between atoms: _232  and  _234
REMARK   81  A    between atoms: _234  and  _235
REMARK   82  A    between atoms: _234  and  _237
REMARK   83  A    between atoms: _240  and  _242
REMARK   84  A    between atoms: _242  and  _243
REMARK   85  A    between atoms: _242  and  _245
REMARK   86  A    between atoms: _245  and  _246
REMARK   87  A    between atoms: _249  and  _251
REMARK   88  A    between atoms: _251  and  _252
REMARK   89  A    between atoms: _255  and  _257
REMARK   90  A    between atoms: _257  and  _258
REMARK   91  A    between atoms: _257  and  _260
REMARK   92  A    between atoms: _263  and  _265
REMARK   93  A    between atoms: _265  and  _266
REMARK   94  A    between atoms: _265  and  _268
REMARK   95  A    between atoms: _268  and  _269
REMARK   96  A    between atoms: _272  and  _274
REMARK   97  A    between atoms: _274  and  _275
REMARK   98  A    between atoms: _277  and  _279
REMARK   99  A    between atoms: _279  and  _280
REMARK  100  A    between atoms: _279  and  _282
REMARK  101  A    between atoms: _282  and  _283
REMARK  102  A    between atoms: _285  and  _287
REMARK  103  A    between atoms: _287  and  _288
REMARK  104  A    between atoms: _287  and  _290
REMARK  105  A    between atoms: _290  and  _291
REMARK  106  A    between atoms: _294  and  _296
REMARK  107  A    between atoms: _296  and  _297
REMARK  108  A    between atoms: _296  and  _299
REMARK  109  A    between atoms: _299  and  _300
REMARK  110  A    between atoms: _303  and  _305
REMARK  111  A    between atoms: _305  and  _306
REMARK  112  A    between atoms: _305  and  _308
REMARK  113  A    between atoms: _308  and  _309
REMARK  114  A    between atoms: _313  and  _314
REMARK  115  A    between atoms: _320  and  _321
REMARK  116  A    between atoms: _326  and  _328
REMARK  117  A    between atoms: _328  and  _329
REMARK  118  A    between atoms: _328  and  _331
REMARK  119  A    between atoms: _331  and  _332
REMARK  120  A    between atoms: _335  and  _337
REMARK  121  A    between atoms: _337  and  _338
REMARK  122  A    between atoms: _337  and  _340
REMARK  123  A    between atoms: _340  and  _341
REMARK  124  A    between atoms: _344  and  _346
REMARK  125  A    between atoms: _346  and  _347
REMARK  126  A    between atoms: _346  and  _349
REMARK  127  A    between atoms: _351  and  _353
REMARK  128  A    between atoms: _353  and  _354
REMARK  129  A    between atoms: _353  and  _356
REMARK  130  A    between atoms: _359  and  _361
REMARK  131  A    between atoms: _361  and  _362
REMARK  132  A    between atoms: _361  and  _364
REMARK  133  A    between atoms: _364  and  _365
REMARK  134  A    between atoms: _375  and  _377
REMARK  135  A    between atoms: _377  and  _378
REMARK  136  A    between atoms: _377  and  _380
REMARK  137  A    between atoms: _380  and  _381
REMARK  138  A    between atoms: _386  and  _388
REMARK  139  A    between atoms: _388  and  _389
REMARK  140  A    between atoms: _388  and  _391
REMARK  141  A    between atoms: _391  and  _392
REMARK  142  A    between atoms: _392  and  _393
REMARK  143  A    between atoms: _393  and  _394
REMARK                            x       y       z     vdW  Elec       q    Type
REMARK                         _______ _______ _______ _____ _____    ______ ____
ROOT
ATOM      1  O   HOH     1       4.064  -6.663   7.192  0.00  0.00    +0.000 OA
ENDROOT
TORSDOF 0
REMARK  Name = ../refined-set-2016/2weo/2weo_pocket.pdb
REMARK  143 active torsions:
REMARK  status: ('A' for Active; 'I' for Inactive)
REMARK    1  A    between atoms: _1  and  _3
REMARK    2  A    between atoms: _3  and  _4
REMARK    3  A    between atoms: _3  and  _6
REMARK    4  A    between atoms: _6  and  _7
REMARK    5  A    between atoms: _17  and  _19
REMARK    6  A    between atoms: _19  and  _20
REMARK    7  A    between atoms: _19  and  _22
REMARK    8  A    between atoms: _22  and  _23
REMARK    9  A    between atoms: _28  and  _29
REMARK   10  A    between atoms: _31  and  _33
REMARK   11  A    between atoms: _33  and  _34
REMARK   12  A    between atoms: _33  and  _36
REMARK   13  A    between atoms: _36  and  _37
REMARK   14  A    between atoms: _40  and  _41
REMARK   15  A    between atoms: _46  and  _48
REMARK   16  A    between atoms: _48  and  _49
REMARK   17  A    between atoms: _48  and  _51
REMARK   18  A    between atoms: _51  and  _52
REMARK   19  A    between atoms: _57  and  _59
REMARK   20  A    between atoms: _59  and  _60
REMARK   21  A    between atoms: _63  and  _65
REMARK   22  A    between atoms: _65  and  _66
REMARK   23  A    between atoms: _65  and  _68
REMARK   24  A    between atoms: _68  and  _69
REMARK   25  A    between atoms: _74  and  _76
REMARK   26  A    between atoms: _76  and  _77
REMARK   27  A    between atoms: _76  and  _79
REMARK   28  A    between atoms: _79  and  _80
REMARK   29  A    between atoms: _83  and  _85
REMARK   30  A    between atoms: _85  and  _86
REMARK   31  A    between atoms: _85  and  _88
REMARK   32  A    between atoms: _88  and  _89
REMARK   33  A    between atoms: _89  and  _90
REMARK   34  A    between atoms: _95  and  _97
REMARK   35  A    between atoms: _97  and  _98
REMARK   36  A    between atoms: _97  and  _100
REMARK   37  A    between atoms: _100  and  _101
REMARK   38  A    between atoms: _107  and  _109
REMARK   39  A    between atoms: _120  and  _123
REMARK   40  A    between atoms: _123  and  _124
REMARK   41  A    between atoms: _132  and  _133
REMARK   42  A    between atoms: _141  and  _143
REMARK   43  A    between atoms: _143  and  _144
REMARK   44  A    between atoms: _143  and  _146
REMARK   45  A    between atoms: _146  and  _147
REMARK   46  A    between atoms: _147  and  _148
REMARK   47  A    between atoms: _151  and  _153
REMARK   48  A    between atoms: _153  and  _154
REMARK   49  A    between atoms: _153  and  _156
REMARK   50  A    between atoms: _156  and  _157
REMARK   51  A    between atoms: _162  and  _164
REMARK   52  A    between atoms: _164  and  _165
REMARK   53  A    between atoms: _164  and  _167
REMARK   54  A    between atoms: _167  and  _168
REMARK   55  A    between atoms: _168  and  _169
REMARK   56  A    between atoms: _172  and  _174
REMARK   57  A    between atoms: _174  and  _175
REMARK   58  A    between atoms: _174  and  _177
REMARK   59  A    between atoms: _177  and  _178
REMARK   60  A    between atoms: _181  and  _183
REMARK   61  A    between atoms: _183  and  _184
REMARK   62  A    between atoms: _183  and  _186
REMARK   63  A    between atoms: _186  and  _187
REMARK   64  A    between atoms: _188  and  ZN_403
REMARK   65  A    between atoms: _192  and  _194
REMARK   66  A    between atoms: _194  and  _195
REMARK   67  A    between atoms: _194  and  _197
REMARK   68  A    between atoms: _197  and  _198
REMARK   69  A    between atoms: _201  and  _203
REMARK   70  A    between atoms: _203  and  _204
REMARK   71  A    between atoms: _203  and  _206
REMARK   72  A    between atoms: _209  and  _211
REMARK   73  A    between atoms: _211  and  _212
REMARK   74  A    between atoms: _211  and  _214
REMARK   75  A    between atoms: _214  and  _215
REMARK   76  A    between atoms: _220  and  _222
REMARK   77  A    between atoms: _222  and  _223
REMARK   78  A    between atoms: _222  and  _225
REMARK   79  A    between atoms: _225  and  _226
REMARK   80  A    between atoms: _232  and  _234
REMARK   81  A    between atoms: _234  and  _235
REMARK   82  A    between atoms: _234  and  _237
REMARK   83  A    between atoms: _240  and  _242
REMARK   84  A    between atoms: _242  and  _243
REMARK   85  A    between atoms: _242  and  _245
REMARK   86  A    between atoms: _245  and  _246
REMARK   87  A    between atoms: _249  and  _251
REMARK   88  A    between atoms: _251  and  _252
REMARK   89  A    between atoms: _255  and  _257
REMARK   90  A    between atoms: _257  and  _258
REMARK   91  A    between atoms: _257  and  _260
REMARK   92  A    between atoms: _263  and  _265
REMARK   93  A    between atoms: _265  and  _266
REMARK   94  A    between atoms: _265  and  _268
REMARK   95  A    between atoms: _268  and  _269
REMARK   96  A    between atoms: _272  and  _274
REMARK   97  A    between atoms: _274  and  _275
REMARK   98  A    between atoms: _277  and  _279
REMARK   99  A    between atoms: _279  and  _280
REMARK  100  A    between atoms: _279  and  _282
REMARK  101  A    between atoms: _282  and  _283
REMARK  102  A    between atoms: _285  and  _287
REMARK  103  A    between atoms: _287  and  _288
REMARK  104  A    between atoms: _287  and  _290
REMARK  105  A    between atoms: _290  and  _291
REMARK  106  A    between atoms: _294  and  _296
REMARK  107  A    between atoms: _296  and  _297
REMARK  108  A    between atoms: _296  and  _299
REMARK  109  A    between atoms: _299  and  _300
REMARK  110  A    between atoms: _303  and  _305
REMARK  111  A    between atoms: _305  and  _306
REMARK  112  A    between atoms: _305  and  _308
REMARK  113  A    between atoms: _308  and  _309
REMARK  114  A    between atoms: _313  and  _314
REMARK  115  A    between atoms: _320  and  _321
REMARK  116  A    between atoms: _326  and  _328
REMARK  117  A    between atoms: _328  and  _329
REMARK  118  A    between atoms: _328  and  _331
REMARK  119  A    between atoms: _331  and  _332
REMARK  120  A    between atoms: _335  and  _337
REMARK  121  A    between atoms: _337  and  _338
REMARK  122  A    between atoms: _337  and  _340
REMARK  123  A    between atoms: _340  and  _341
REMARK  124  A    between atoms: _344  and  _346
REMARK  125  A    between atoms: _346  and  _347
REMARK  126  A    between atoms: _346  and  _349
REMARK  127  A    between atoms: _351  and  _353
REMARK  128  A    between atoms: _353  and  _354
REMARK  129  A    between atoms: _353  and  _356
REMARK  130  A    between atoms: _359  and  _361
REMARK  131  A    between atoms: _361  and  _362
REMARK  132  A    between atoms: _361  and  _364
REMARK  133  A    between atoms: _364  and  _365
REMARK  134  A    between atoms: _375  and  _377
REMARK  135  A    between atoms: _377  and  _378
REMARK  136  A    between atoms: _377  and  _380
REMARK  137  A    between atoms: _380  and  _381
REMARK  138  A    between atoms: _386  and  _388
REMARK  139  A    between atoms: _388  and  _389
REMARK  140  A    between atoms: _388  and  _391
REMARK  141  A    between atoms: _391  and  _392
REMARK  142  A    between atoms: _392  and  _393
REMARK  143  A    between atoms: _393  and  _394
REMARK                            x       y       z     vdW  Elec       q    Type
REMARK                         _______ _______ _______ _____ _____    ______ ____
ROOT
ATOM      1  O   HOH     1       6.900  -7.795   6.947  0.00  0.00    +0.000 OA
ENDROOT
TORSDOF 0
REMARK  Name = ../refined-set-2016/2weo/2weo_pocket.pdb
REMARK  143 active torsions:
REMARK  status: ('A' for Active; 'I' for Inactive)
REMARK    1  A    between atoms: _1  and  _3
REMARK    2  A    between atoms: _3  and  _4
REMARK    3  A    between atoms: _3  and  _6
REMARK    4  A    between atoms: _6  and  _7
REMARK    5  A    between atoms: _17  and  _19
REMARK    6  A    between atoms: _19  and  _20
REMARK    7  A    between atoms: _19  and  _22
REMARK    8  A    between atoms: _22  and  _23
REMARK    9  A    between atoms: _28  and  _29
REMARK   10  A    between atoms: _31  and  _33
REMARK   11  A    between atoms: _33  and  _34
REMARK   12  A    between atoms: _33  and  _36
REMARK   13  A    between atoms: _36  and  _37
REMARK   14  A    between atoms: _40  and  _41
REMARK   15  A    between atoms: _46  and  _48
REMARK   16  A    between atoms: _48  and  _49
REMARK   17  A    between atoms: _48  and  _51
REMARK   18  A    between atoms: _51  and  _52
REMARK   19  A    between atoms: _57  and  _59
REMARK   20  A    between atoms: _59  and  _60
REMARK   21  A    between atoms: _63  and  _65
REMARK   22  A    between atoms: _65  and  _66
REMARK   23  A    between atoms: _65  and  _68
REMARK   24  A    between atoms: _68  and  _69
REMARK   25  A    between atoms: _74  and  _76
REMARK   26  A    between atoms: _76  and  _77
REMARK   27  A    between atoms: _76  and  _79
REMARK   28  A    between atoms: _79  and  _80
REMARK   29  A    between atoms: _83  and  _85
REMARK   30  A    between atoms: _85  and  _86
REMARK   31  A    between atoms: _85  and  _88
REMARK   32  A    between atoms: _88  and  _89
REMARK   33  A    between atoms: _89  and  _90
REMARK   34  A    between atoms: _95  and  _97
REMARK   35  A    between atoms: _97  and  _98
REMARK   36  A    between atoms: _97  and  _100
REMARK   37  A    between atoms: _100  and  _101
REMARK   38  A    between atoms: _107  and  _109
REMARK   39  A    between atoms: _120  and  _123
REMARK   40  A    between atoms: _123  and  _124
REMARK   41  A    between atoms: _132  and  _133
REMARK   42  A    between atoms: _141  and  _143
REMARK   43  A    between atoms: _143  and  _144
REMARK   44  A    between atoms: _143  and  _146
REMARK   45  A    between atoms: _146  and  _147
REMARK   46  A    between atoms: _147  and  _148
REMARK   47  A    between atoms: _151  and  _153
REMARK   48  A    between atoms: _153  and  _154
REMARK   49  A    between atoms: _153  and  _156
REMARK   50  A    between atoms: _156  and  _157
REMARK   51  A    between atoms: _162  and  _164
REMARK   52  A    between atoms: _164  and  _165
REMARK   53  A    between atoms: _164  and  _167
REMARK   54  A    between atoms: _167  and  _168
REMARK   55  A    between atoms: _168  and  _169
REMARK   56  A    between atoms: _172  and  _174
REMARK   57  A    between atoms: _174  and  _175
REMARK   58  A    between atoms: _174  and  _177
REMARK   59  A    between atoms: _177  and  _178
REMARK   60  A    between atoms: _181  and  _183
REMARK   61  A    between atoms: _183  and  _184
REMARK   62  A    between atoms: _183  and  _186
REMARK   63  A    between atoms: _186  and  _187
REMARK   64  A    between atoms: _188  and  ZN_403
REMARK   65  A    between atoms: _192  and  _194
REMARK   66  A    between atoms: _194  and  _195
REMARK   67  A    between atoms: _194  and  _197
REMARK   68  A    between atoms: _197  and  _198
REMARK   69  A    between atoms: _201  and  _203
REMARK   70  A    between atoms: _203  and  _204
REMARK   71  A    between atoms: _203  and  _206
REMARK   72  A    between atoms: _209  and  _211
REMARK   73  A    between atoms: _211  and  _212
REMARK   74  A    between atoms: _211  and  _214
REMARK   75  A    between atoms: _214  and  _215
REMARK   76  A    between atoms: _220  and  _222
REMARK   77  A    between atoms: _222  and  _223
REMARK   78  A    between atoms: _222  and  _225
REMARK   79  A    between atoms: _225  and  _226
REMARK   80  A    between atoms: _232  and  _234
REMARK   81  A    between atoms: _234  and  _235
REMARK   82  A    between atoms: _234  and  _237
REMARK   83  A    between atoms: _240  and  _242
REMARK   84  A    between atoms: _242  and  _243
REMARK   85  A    between atoms: _242  and  _245
REMARK   86  A    between atoms: _245  and  _246
REMARK   87  A    between atoms: _249  and  _251
REMARK   88  A    between atoms: _251  and  _252
REMARK   89  A    between atoms: _255  and  _257
REMARK   90  A    between atoms: _257  and  _258
REMARK   91  A    between atoms: _257  and  _260
REMARK   92  A    between atoms: _263  and  _265
REMARK   93  A    between atoms: _265  and  _266
REMARK   94  A    between atoms: _265  and  _268
REMARK   95  A    between atoms: _268  and  _269
REMARK   96  A    between atoms: _272  and  _274
REMARK   97  A    between atoms: _274  and  _275
REMARK   98  A    between atoms: _277  and  _279
REMARK   99  A    between atoms: _279  and  _280
REMARK  100  A    between atoms: _279  and  _282
REMARK  101  A    between atoms: _282  and  _283
REMARK  102  A    between atoms: _285  and  _287
REMARK  103  A    between atoms: _287  and  _288
REMARK  104  A    between atoms: _287  and  _290
REMARK  105  A    between atoms: _290  and  _291
REMARK  106  A    between atoms: _294  and  _296
REMARK  107  A    between atoms: _296  and  _297
REMARK  108  A    between atoms: _296  and  _299
REMARK  109  A    between atoms: _299  and  _300
REMARK  110  A    between atoms: _303  and  _305
REMARK  111  A    between atoms: _305  and  _306
REMARK  112  A    between atoms: _305  and  _308
REMARK  113  A    between atoms: _308  and  _309
REMARK  114  A    between atoms: _313  and  _314
REMARK  115  A    between atoms: _320  and  _321
REMARK  116  A    between atoms: _326  and  _328
REMARK  117  A    between atoms: _328  and  _329
REMARK  118  A    between atoms: _328  and  _331
REMARK  119  A    between atoms: _331  and  _332
REMARK  120  A    between atoms: _335  and  _337
REMARK  121  A    between atoms: _337  and  _338
REMARK  122  A    between atoms: _337  and  _340
REMARK  123  A    between atoms: _340  and  _341
REMARK  124  A    between atoms: _344  and  _346
REMARK  125  A    between atoms: _346  and  _347
REMARK  126  A    between atoms: _346  and  _349
REMARK  127  A    between atoms: _351  and  _353
REMARK  128  A    between atoms: _353  and  _354
REMARK  129  A    between atoms: _353  and  _356
REMARK  130  A    between atoms: _359  and  _361
REMARK  131  A    between atoms: _361  and  _362
REMARK  132  A    between atoms: _361  and  _364
REMARK  133  A    between atoms: _364  and  _365
REMARK  134  A    between atoms: _375  and  _377
REMARK  135  A    between atoms: _377  and  _378
REMARK  136  A    between atoms: _377  and  _380
REMARK  137  A    between atoms: _380  and  _381
REMARK  138  A    between atoms: _386  and  _388
REMARK  139  A    between atoms: _388  and  _389
REMARK  140  A    between atoms: _388  and  _391
REMARK  141  A    between atoms: _391  and  _392
REMARK  142  A    between atoms: _392  and  _393
REMARK  143  A    between atoms: _393  and  _394
REMARK                            x       y       z     vdW  Elec       q    Type
REMARK                         _______ _______ _______ _____ _____    ______ ____
ROOT
ATOM      1  O   HOH     1       6.605  -8.395  10.735  0.00  0.00    +0.000 OA
ENDROOT
TORSDOF 0
REMARK  Name = ../refined-set-2016/2weo/2weo_pocket.pdb
REMARK  143 active torsions:
REMARK  status: ('A' for Active; 'I' for Inactive)
REMARK    1  A    between atoms: _1  and  _3
REMARK    2  A    between atoms: _3  and  _4
REMARK    3  A    between atoms: _3  and  _6
REMARK    4  A    between atoms: _6  and  _7
REMARK    5  A    between atoms: _17  and  _19
REMARK    6  A    between atoms: _19  and  _20
REMARK    7  A    between atoms: _19  and  _22
REMARK    8  A    between atoms: _22  and  _23
REMARK    9  A    between atoms: _28  and  _29
REMARK   10  A    between atoms: _31  and  _33
REMARK   11  A    between atoms: _33  and  _34
REMARK   12  A    between atoms: _33  and  _36
REMARK   13  A    between atoms: _36  and  _37
REMARK   14  A    between atoms: _40  and  _41
REMARK   15  A    between atoms: _46  and  _48
REMARK   16  A    between atoms: _48  and  _49
REMARK   17  A    between atoms: _48  and  _51
REMARK   18  A    between atoms: _51  and  _52
REMARK   19  A    between atoms: _57  and  _59
REMARK   20  A    between atoms: _59  and  _60
REMARK   21  A    between atoms: _63  and  _65
REMARK   22  A    between atoms: _65  and  _66
REMARK   23  A    between atoms: _65  and  _68
REMARK   24  A    between atoms: _68  and  _69
REMARK   25  A    between atoms: _74  and  _76
REMARK   26  A    between atoms: _76  and  _77
REMARK   27  A    between atoms: _76  and  _79
REMARK   28  A    between atoms: _79  and  _80
REMARK   29  A    between atoms: _83  and  _85
REMARK   30  A    between atoms: _85  and  _86
REMARK   31  A    between atoms: _85  and  _88
REMARK   32  A    between atoms: _88  and  _89
REMARK   33  A    between atoms: _89  and  _90
REMARK   34  A    between atoms: _95  and  _97
REMARK   35  A    between atoms: _97  and  _98
REMARK   36  A    between atoms: _97  and  _100
REMARK   37  A    between atoms: _100  and  _101
REMARK   38  A    between atoms: _107  and  _109
REMARK   39  A    between atoms: _120  and  _123
REMARK   40  A    between atoms: _123  and  _124
REMARK   41  A    between atoms: _132  and  _133
REMARK   42  A    between atoms: _141  and  _143
REMARK   43  A    between atoms: _143  and  _144
REMARK   44  A    between atoms: _143  and  _146
REMARK   45  A    between atoms: _146  and  _147
REMARK   46  A    between atoms: _147  and  _148
REMARK   47  A    between atoms: _151  and  _153
REMARK   48  A    between atoms: _153  and  _154
REMARK   49  A    between atoms: _153  and  _156
REMARK   50  A    between atoms: _156  and  _157
REMARK   51  A    between atoms: _162  and  _164
REMARK   52  A    between atoms: _164  and  _165
REMARK   53  A    between atoms: _164  and  _167
REMARK   54  A    between atoms: _167  and  _168
REMARK   55  A    between atoms: _168  and  _169
REMARK   56  A    between atoms: _172  and  _174
REMARK   57  A    between atoms: _174  and  _175
REMARK   58  A    between atoms: _174  and  _177
REMARK   59  A    between atoms: _177  and  _178
REMARK   60  A    between atoms: _181  and  _183
REMARK   61  A    between atoms: _183  and  _184
REMARK   62  A    between atoms: _183  and  _186
REMARK   63  A    between atoms: _186  and  _187
REMARK   64  A    between atoms: _188  and  ZN_403
REMARK   65  A    between atoms: _192  and  _194
REMARK   66  A    between atoms: _194  and  _195
REMARK   67  A    between atoms: _194  and  _197
REMARK   68  A    between atoms: _197  and  _198
REMARK   69  A    between atoms: _201  and  _203
REMARK   70  A    between atoms: _203  and  _204
REMARK   71  A    between atoms: _203  and  _206
REMARK   72  A    between atoms: _209  and  _211
REMARK   73  A    between atoms: _211  and  _212
REMARK   74  A    between atoms: _211  and  _214
REMARK   75  A    between atoms: _214  and  _215
REMARK   76  A    between atoms: _220  and  _222
REMARK   77  A    between atoms: _222  and  _223
REMARK   78  A    between atoms: _222  and  _225
REMARK   79  A    between atoms: _225  and  _226
REMARK   80  A    between atoms: _232  and  _234
REMARK   81  A    between atoms: _234  and  _235
REMARK   82  A    between atoms: _234  and  _237
REMARK   83  A    between atoms: _240  and  _242
REMARK   84  A    between atoms: _242  and  _243
REMARK   85  A    between atoms: _242  and  _245
REMARK   86  A    between atoms: _245  and  _246
REMARK   87  A    between atoms: _249  and  _251
REMARK   88  A    between atoms: _251  and  _252
REMARK   89  A    between atoms: _255  and  _257
REMARK   90  A    between atoms: _257  and  _258
REMARK   91  A    between atoms: _257  and  _260
REMARK   92  A    between atoms: _263  and  _265
REMARK   93  A    between atoms: _265  and  _266
REMARK   94  A    between atoms: _265  and  _268
REMARK   95  A    between atoms: _268  and  _269
REMARK   96  A    between atoms: _272  and  _274
REMARK   97  A    between atoms: _274  and  _275
REMARK   98  A    between atoms: _277  and  _279
REMARK   99  A    between atoms: _279  and  _280
REMARK  100  A    between atoms: _279  and  _282
REMARK  101  A    between atoms: _282  and  _283
REMARK  102  A    between atoms: _285  and  _287
REMARK  103  A    between atoms: _287  and  _288
REMARK  104  A    between atoms: _287  and  _290
REMARK  105  A    between atoms: _290  and  _291
REMARK  106  A    between atoms: _294  and  _296
REMARK  107  A    between atoms: _296  and  _297
REMARK  108  A    between atoms: _296  and  _299
REMARK  109  A    between atoms: _299  and  _300
REMARK  110  A    between atoms: _303  and  _305
REMARK  111  A    between atoms: _305  and  _306
REMARK  112  A    between atoms: _305  and  _308
REMARK  113  A    between atoms: _308  and  _309
REMARK  114  A    between atoms: _313  and  _314
REMARK  115  A    between atoms: _320  and  _321
REMARK  116  A    between atoms: _326  and  _328
REMARK  117  A    between atoms: _328  and  _329
REMARK  118  A    between atoms: _328  and  _331
REMARK  119  A    between atoms: _331  and  _332
REMARK  120  A    between atoms: _335  and  _337
REMARK  121  A    between atoms: _337  and  _338
REMARK  122  A    between atoms: _337  and  _340
REMARK  123  A    between atoms: _340  and  _341
REMARK  124  A    between atoms: _344  and  _346
REMARK  125  A    between atoms: _346  and  _347
REMARK  126  A    between atoms: _346  and  _349
REMARK  127  A    between atoms: _351  and  _353
REMARK  128  A    between atoms: _353  and  _354
REMARK  129  A    between atoms: _353  and  _356
REMARK  130  A    between atoms: _359  and  _361
REMARK  131  A    between atoms: _361  and  _362
REMARK  132  A    between atoms: _361  and  _364
REMARK  133  A    between atoms: _364  and  _365
REMARK  134  A    between atoms: _375  and  _377
REMARK  135  A    between atoms: _377  and  _378
REMARK  136  A    between atoms: _377  and  _380
REMARK  137  A    between atoms: _380  and  _381
REMARK  138  A    between atoms: _386  and  _388
REMARK  139  A    between atoms: _388  and  _389
REMARK  140  A    between atoms: _388  and  _391
REMARK  141  A    between atoms: _391  and  _392
REMARK  142  A    between atoms: _392  and  _393
REMARK  143  A    between atoms: _393  and  _394
REMARK                            x       y       z     vdW  Elec       q    Type
REMARK                         _______ _______ _______ _____ _____    ______ ____
ROOT
ATOM      1  O   HOH     1       1.245   2.348  15.784  0.00  0.00    +0.000 OA
ENDROOT
TORSDOF 0
REMARK  Name = ../refined-set-2016/2weo/2weo_pocket.pdb
REMARK  143 active torsions:
REMARK  status: ('A' for Active; 'I' for Inactive)
REMARK    1  A    between atoms: _1  and  _3
REMARK    2  A    between atoms: _3  and  _4
REMARK    3  A    between atoms: _3  and  _6
REMARK    4  A    between atoms: _6  and  _7
REMARK    5  A    between atoms: _17  and  _19
REMARK    6  A    between atoms: _19  and  _20
REMARK    7  A    between atoms: _19  and  _22
REMARK    8  A    between atoms: _22  and  _23
REMARK    9  A    between atoms: _28  and  _29
REMARK   10  A    between atoms: _31  and  _33
REMARK   11  A    between atoms: _33  and  _34
REMARK   12  A    between atoms: _33  and  _36
REMARK   13  A    between atoms: _36  and  _37
REMARK   14  A    between atoms: _40  and  _41
REMARK   15  A    between atoms: _46  and  _48
REMARK   16  A    between atoms: _48  and  _49
REMARK   17  A    between atoms: _48  and  _51
REMARK   18  A    between atoms: _51  and  _52
REMARK   19  A    between atoms: _57  and  _59
REMARK   20  A    between atoms: _59  and  _60
REMARK   21  A    between atoms: _63  and  _65
REMARK   22  A    between atoms: _65  and  _66
REMARK   23  A    between atoms: _65  and  _68
REMARK   24  A    between atoms: _68  and  _69
REMARK   25  A    between atoms: _74  and  _76
REMARK   26  A    between atoms: _76  and  _77
REMARK   27  A    between atoms: _76  and  _79
REMARK   28  A    between atoms: _79  and  _80
REMARK   29  A    between atoms: _83  and  _85
REMARK   30  A    between atoms: _85  and  _86
REMARK   31  A    between atoms: _85  and  _88
REMARK   32  A    between atoms: _88  and  _89
REMARK   33  A    between atoms: _89  and  _90
REMARK   34  A    between atoms: _95  and  _97
REMARK   35  A    between atoms: _97  and  _98
REMARK   36  A    between atoms: _97  and  _100
REMARK   37  A    between atoms: _100  and  _101
REMARK   38  A    between atoms: _107  and  _109
REMARK   39  A    between atoms: _120  and  _123
REMARK   40  A    between atoms: _123  and  _124
REMARK   41  A    between atoms: _132  and  _133
REMARK   42  A    between atoms: _141  and  _143
REMARK   43  A    between atoms: _143  and  _144
REMARK   44  A    between atoms: _143  and  _146
REMARK   45  A    between atoms: _146  and  _147
REMARK   46  A    between atoms: _147  and  _148
REMARK   47  A    between atoms: _151  and  _153
REMARK   48  A    between atoms: _153  and  _154
REMARK   49  A    between atoms: _153  and  _156
REMARK   50  A    between atoms: _156  and  _157
REMARK   51  A    between atoms: _162  and  _164
REMARK   52  A    between atoms: _164  and  _165
REMARK   53  A    between atoms: _164  and  _167
REMARK   54  A    between atoms: _167  and  _168
REMARK   55  A    between atoms: _168  and  _169
REMARK   56  A    between atoms: _172  and  _174
REMARK   57  A    between atoms: _174  and  _175
REMARK   58  A    between atoms: _174  and  _177
REMARK   59  A    between atoms: _177  and  _178
REMARK   60  A    between atoms: _181  and  _183
REMARK   61  A    between atoms: _183  and  _184
REMARK   62  A    between atoms: _183  and  _186
REMARK   63  A    between atoms: _186  and  _187
REMARK   64  A    between atoms: _188  and  ZN_403
REMARK   65  A    between atoms: _192  and  _194
REMARK   66  A    between atoms: _194  and  _195
REMARK   67  A    between atoms: _194  and  _197
REMARK   68  A    between atoms: _197  and  _198
REMARK   69  A    between atoms: _201  and  _203
REMARK   70  A    between atoms: _203  and  _204
REMARK   71  A    between atoms: _203  and  _206
REMARK   72  A    between atoms: _209  and  _211
REMARK   73  A    between atoms: _211  and  _212
REMARK   74  A    between atoms: _211  and  _214
REMARK   75  A    between atoms: _214  and  _215
REMARK   76  A    between atoms: _220  and  _222
REMARK   77  A    between atoms: _222  and  _223
REMARK   78  A    between atoms: _222  and  _225
REMARK   79  A    between atoms: _225  and  _226
REMARK   80  A    between atoms: _232  and  _234
REMARK   81  A    between atoms: _234  and  _235
REMARK   82  A    between atoms: _234  and  _237
REMARK   83  A    between atoms: _240  and  _242
REMARK   84  A    between atoms: _242  and  _243
REMARK   85  A    between atoms: _242  and  _245
REMARK   86  A    between atoms: _245  and  _246
REMARK   87  A    between atoms: _249  and  _251
REMARK   88  A    between atoms: _251  and  _252
REMARK   89  A    between atoms: _255  and  _257
REMARK   90  A    between atoms: _257  and  _258
REMARK   91  A    between atoms: _257  and  _260
REMARK   92  A    between atoms: _263  and  _265
REMARK   93  A    between atoms: _265  and  _266
REMARK   94  A    between atoms: _265  and  _268
REMARK   95  A    between atoms: _268  and  _269
REMARK   96  A    between atoms: _272  and  _274
REMARK   97  A    between atoms: _274  and  _275
REMARK   98  A    between atoms: _277  and  _279
REMARK   99  A    between atoms: _279  and  _280
REMARK  100  A    between atoms: _279  and  _282
REMARK  101  A    between atoms: _282  and  _283
REMARK  102  A    between atoms: _285  and  _287
REMARK  103  A    between atoms: _287  and  _288
REMARK  104  A    between atoms: _287  and  _290
REMARK  105  A    between atoms: _290  and  _291
REMARK  106  A    between atoms: _294  and  _296
REMARK  107  A    between atoms: _296  and  _297
REMARK  108  A    between atoms: _296  and  _299
REMARK  109  A    between atoms: _299  and  _300
REMARK  110  A    between atoms: _303  and  _305
REMARK  111  A    between atoms: _305  and  _306
REMARK  112  A    between atoms: _305  and  _308
REMARK  113  A    between atoms: _308  and  _309
REMARK  114  A    between atoms: _313  and  _314
REMARK  115  A    between atoms: _320  and  _321
REMARK  116  A    between atoms: _326  and  _328
REMARK  117  A    between atoms: _328  and  _329
REMARK  118  A    between atoms: _328  and  _331
REMARK  119  A    between atoms: _331  and  _332
REMARK  120  A    between atoms: _335  and  _337
REMARK  121  A    between atoms: _337  and  _338
REMARK  122  A    between atoms: _337  and  _340
REMARK  123  A    between atoms: _340  and  _341
REMARK  124  A    between atoms: _344  and  _346
REMARK  125  A    between atoms: _346  and  _347
REMARK  126  A    between atoms: _346  and  _349
REMARK  127  A    between atoms: _351  and  _353
REMARK  128  A    between atoms: _353  and  _354
REMARK  129  A    between atoms: _353  and  _356
REMARK  130  A    between atoms: _359  and  _361
REMARK  131  A    between atoms: _361  and  _362
REMARK  132  A    between atoms: _361  and  _364
REMARK  133  A    between atoms: _364  and  _365
REMARK  134  A    between atoms: _375  and  _377
REMARK  135  A    between atoms: _377  and  _378
REMARK  136  A    between atoms: _377  and  _380
REMARK  137  A    between atoms: _380  and  _381
REMARK  138  A    between atoms: _386  and  _388
REMARK  139  A    between atoms: _388  and  _389
REMARK  140  A    between atoms: _388  and  _391
REMARK  141  A    between atoms: _391  and  _392
REMARK  142  A    between atoms: _392  and  _393
REMARK  143  A    between atoms: _393  and  _394
REMARK                            x       y       z     vdW  Elec       q    Type
REMARK                         _______ _______ _______ _____ _____    ______ ____
ROOT
ATOM      1  O   HOH     1       2.483   1.472  11.426  0.00  0.00    +0.000 OA
ENDROOT
TORSDOF 0
REMARK  Name = ../refined-set-2016/2weo/2weo_pocket.pdb
REMARK  143 active torsions:
REMARK  status: ('A' for Active; 'I' for Inactive)
REMARK    1  A    between atoms: _1  and  _3
REMARK    2  A    between atoms: _3  and  _4
REMARK    3  A    between atoms: _3  and  _6
REMARK    4  A    between atoms: _6  and  _7
REMARK    5  A    between atoms: _17  and  _19
REMARK    6  A    between atoms: _19  and  _20
REMARK    7  A    between atoms: _19  and  _22
REMARK    8  A    between atoms: _22  and  _23
REMARK    9  A    between atoms: _28  and  _29
REMARK   10  A    between atoms: _31  and  _33
REMARK   11  A    between atoms: _33  and  _34
REMARK   12  A    between atoms: _33  and  _36
REMARK   13  A    between atoms: _36  and  _37
REMARK   14  A    between atoms: _40  and  _41
REMARK   15  A    between atoms: _46  and  _48
REMARK   16  A    between atoms: _48  and  _49
REMARK   17  A    between atoms: _48  and  _51
REMARK   18  A    between atoms: _51  and  _52
REMARK   19  A    between atoms: _57  and  _59
REMARK   20  A    between atoms: _59  and  _60
REMARK   21  A    between atoms: _63  and  _65
REMARK   22  A    between atoms: _65  and  _66
REMARK   23  A    between atoms: _65  and  _68
REMARK   24  A    between atoms: _68  and  _69
REMARK   25  A    between atoms: _74  and  _76
REMARK   26  A    between atoms: _76  and  _77
REMARK   27  A    between atoms: _76  and  _79
REMARK   28  A    between atoms: _79  and  _80
REMARK   29  A    between atoms: _83  and  _85
REMARK   30  A    between atoms: _85  and  _86
REMARK   31  A    between atoms: _85  and  _88
REMARK   32  A    between atoms: _88  and  _89
REMARK   33  A    between atoms: _89  and  _90
REMARK   34  A    between atoms: _95  and  _97
REMARK   35  A    between atoms: _97  and  _98
REMARK   36  A    between atoms: _97  and  _100
REMARK   37  A    between atoms: _100  and  _101
REMARK   38  A    between atoms: _107  and  _109
REMARK   39  A    between atoms: _120  and  _123
REMARK   40  A    between atoms: _123  and  _124
REMARK   41  A    between atoms: _132  and  _133
REMARK   42  A    between atoms: _141  and  _143
REMARK   43  A    between atoms: _143  and  _144
REMARK   44  A    between atoms: _143  and  _146
REMARK   45  A    between atoms: _146  and  _147
REMARK   46  A    between atoms: _147  and  _148
REMARK   47  A    between atoms: _151  and  _153
REMARK   48  A    between atoms: _153  and  _154
REMARK   49  A    between atoms: _153  and  _156
REMARK   50  A    between atoms: _156  and  _157
REMARK   51  A    between atoms: _162  and  _164
REMARK   52  A    between atoms: _164  and  _165
REMARK   53  A    between atoms: _164  and  _167
REMARK   54  A    between atoms: _167  and  _168
REMARK   55  A    between atoms: _168  and  _169
REMARK   56  A    between atoms: _172  and  _174
REMARK   57  A    between atoms: _174  and  _175
REMARK   58  A    between atoms: _174  and  _177
REMARK   59  A    between atoms: _177  and  _178
REMARK   60  A    between atoms: _181  and  _183
REMARK   61  A    between atoms: _183  and  _184
REMARK   62  A    between atoms: _183  and  _186
REMARK   63  A    between atoms: _186  and  _187
REMARK   64  A    between atoms: _188  and  ZN_403
REMARK   65  A    between atoms: _192  and  _194
REMARK   66  A    between atoms: _194  and  _195
REMARK   67  A    between atoms: _194  and  _197
REMARK   68  A    between atoms: _197  and  _198
REMARK   69  A    between atoms: _201  and  _203
REMARK   70  A    between atoms: _203  and  _204
REMARK   71  A    between atoms: _203  and  _206
REMARK   72  A    between atoms: _209  and  _211
REMARK   73  A    between atoms: _211  and  _212
REMARK   74  A    between atoms: _211  and  _214
REMARK   75  A    between atoms: _214  and  _215
REMARK   76  A    between atoms: _220  and  _222
REMARK   77  A    between atoms: _222  and  _223
REMARK   78  A    between atoms: _222  and  _225
REMARK   79  A    between atoms: _225  and  _226
REMARK   80  A    between atoms: _232  and  _234
REMARK   81  A    between atoms: _234  and  _235
REMARK   82  A    between atoms: _234  and  _237
REMARK   83  A    between atoms: _240  and  _242
REMARK   84  A    between atoms: _242  and  _243
REMARK   85  A    between atoms: _242  and  _245
REMARK   86  A    between atoms: _245  and  _246
REMARK   87  A    between atoms: _249  and  _251
REMARK   88  A    between atoms: _251  and  _252
REMARK   89  A    between atoms: _255  and  _257
REMARK   90  A    between atoms: _257  and  _258
REMARK   91  A    between atoms: _257  and  _260
REMARK   92  A    between atoms: _263  and  _265
REMARK   93  A    between atoms: _265  and  _266
REMARK   94  A    between atoms: _265  and  _268
REMARK   95  A    between atoms: _268  and  _269
REMARK   96  A    between atoms: _272  and  _274
REMARK   97  A    between atoms: _274  and  _275
REMARK   98  A    between atoms: _277  and  _279
REMARK   99  A    between atoms: _279  and  _280
REMARK  100  A    between atoms: _279  and  _282
REMARK  101  A    between atoms: _282  and  _283
REMARK  102  A    between atoms: _285  and  _287
REMARK  103  A    between atoms: _287  and  _288
REMARK  104  A    between atoms: _287  and  _290
REMARK  105  A    between atoms: _290  and  _291
REMARK  106  A    between atoms: _294  and  _296
REMARK  107  A    between atoms: _296  and  _297
REMARK  108  A    between atoms: _296  and  _299
REMARK  109  A    between atoms: _299  and  _300
REMARK  110  A    between atoms: _303  and  _305
REMARK  111  A    between atoms: _305  and  _306
REMARK  112  A    between atoms: _305  and  _308
REMARK  113  A    between atoms: _308  and  _309
REMARK  114  A    between atoms: _313  and  _314
REMARK  115  A    between atoms: _320  and  _321
REMARK  116  A    between atoms: _326  and  _328
REMARK  117  A    between atoms: _328  and  _329
REMARK  118  A    between atoms: _328  and  _331
REMARK  119  A    between atoms: _331  and  _332
REMARK  120  A    between atoms: _335  and  _337
REMARK  121  A    between atoms: _337  and  _338
REMARK  122  A    between atoms: _337  and  _340
REMARK  123  A    between atoms: _340  and  _341
REMARK  124  A    between atoms: _344  and  _346
REMARK  125  A    between atoms: _346  and  _347
REMARK  126  A    between atoms: _346  and  _349
REMARK  127  A    between atoms: _351  and  _353
REMARK  128  A    between atoms: _353  and  _354
REMARK  129  A    between atoms: _353  and  _356
REMARK  130  A    between atoms: _359  and  _361
REMARK  131  A    between atoms: _361  and  _362
REMARK  132  A    between atoms: _361  and  _364
REMARK  133  A    between atoms: _364  and  _365
REMARK  134  A    between atoms: _375  and  _377
REMARK  135  A    between atoms: _377  and  _378
REMARK  136  A    between atoms: _377  and  _380
REMARK  137  A    between atoms: _380  and  _381
REMARK  138  A    between atoms: _386  and  _388
REMARK  139  A    between atoms: _388  and  _389
REMARK  140  A    between atoms: _388  and  _391
REMARK  141  A    between atoms: _391  and  _392
REMARK  142  A    between atoms: _392  and  _393
REMARK  143  A    between atoms: _393  and  _394
REMARK                            x       y       z     vdW  Elec       q    Type
REMARK                         _______ _______ _______ _____ _____    ______ ____
ROOT
ATOM      1  O   HOH     1       1.036  -3.154  11.630  0.00  0.00    +0.000 OA
ENDROOT
TORSDOF 0
REMARK  Name = ../refined-set-2016/2weo/2weo_pocket.pdb
REMARK  143 active torsions:
REMARK  status: ('A' for Active; 'I' for Inactive)
REMARK    1  A    between atoms: _1  and  _3
REMARK    2  A    between atoms: _3  and  _4
REMARK    3  A    between atoms: _3  and  _6
REMARK    4  A    between atoms: _6  and  _7
REMARK    5  A    between atoms: _17  and  _19
REMARK    6  A    between atoms: _19  and  _20
REMARK    7  A    between atoms: _19  and  _22
REMARK    8  A    between atoms: _22  and  _23
REMARK    9  A    between atoms: _28  and  _29
REMARK   10  A    between atoms: _31  and  _33
REMARK   11  A    between atoms: _33  and  _34
REMARK   12  A    between atoms: _33  and  _36
REMARK   13  A    between atoms: _36  and  _37
REMARK   14  A    between atoms: _40  and  _41
REMARK   15  A    between atoms: _46  and  _48
REMARK   16  A    between atoms: _48  and  _49
REMARK   17  A    between atoms: _48  and  _51
REMARK   18  A    between atoms: _51  and  _52
REMARK   19  A    between atoms: _57  and  _59
REMARK   20  A    between atoms: _59  and  _60
REMARK   21  A    between atoms: _63  and  _65
REMARK   22  A    between atoms: _65  and  _66
REMARK   23  A    between atoms: _65  and  _68
REMARK   24  A    between atoms: _68  and  _69
REMARK   25  A    between atoms: _74  and  _76
REMARK   26  A    between atoms: _76  and  _77
REMARK   27  A    between atoms: _76  and  _79
REMARK   28  A    between atoms: _79  and  _80
REMARK   29  A    between atoms: _83  and  _85
REMARK   30  A    between atoms: _85  and  _86
REMARK   31  A    between atoms: _85  and  _88
REMARK   32  A    between atoms: _88  and  _89
REMARK   33  A    between atoms: _89  and  _90
REMARK   34  A    between atoms: _95  and  _97
REMARK   35  A    between atoms: _97  and  _98
REMARK   36  A    between atoms: _97  and  _100
REMARK   37  A    between atoms: _100  and  _101
REMARK   38  A    between atoms: _107  and  _109
REMARK   39  A    between atoms: _120  and  _123
REMARK   40  A    between atoms: _123  and  _124
REMARK   41  A    between atoms: _132  and  _133
REMARK   42  A    between atoms: _141  and  _143
REMARK   43  A    between atoms: _143  and  _144
REMARK   44  A    between atoms: _143  and  _146
REMARK   45  A    between atoms: _146  and  _147
REMARK   46  A    between atoms: _147  and  _148
REMARK   47  A    between atoms: _151  and  _153
REMARK   48  A    between atoms: _153  and  _154
REMARK   49  A    between atoms: _153  and  _156
REMARK   50  A    between atoms: _156  and  _157
REMARK   51  A    between atoms: _162  and  _164
REMARK   52  A    between atoms: _164  and  _165
REMARK   53  A    between atoms: _164  and  _167
REMARK   54  A    between atoms: _167  and  _168
REMARK   55  A    between atoms: _168  and  _169
REMARK   56  A    between atoms: _172  and  _174
REMARK   57  A    between atoms: _174  and  _175
REMARK   58  A    between atoms: _174  and  _177
REMARK   59  A    between atoms: _177  and  _178
REMARK   60  A    between atoms: _181  and  _183
REMARK   61  A    between atoms: _183  and  _184
REMARK   62  A    between atoms: _183  and  _186
REMARK   63  A    between atoms: _186  and  _187
REMARK   64  A    between atoms: _188  and  ZN_403
REMARK   65  A    between atoms: _192  and  _194
REMARK   66  A    between atoms: _194  and  _195
REMARK   67  A    between atoms: _194  and  _197
REMARK   68  A    between atoms: _197  and  _198
REMARK   69  A    between atoms: _201  and  _203
REMARK   70  A    between atoms: _203  and  _204
REMARK   71  A    between atoms: _203  and  _206
REMARK   72  A    between atoms: _209  and  _211
REMARK   73  A    between atoms: _211  and  _212
REMARK   74  A    between atoms: _211  and  _214
REMARK   75  A    between atoms: _214  and  _215
REMARK   76  A    between atoms: _220  and  _222
REMARK   77  A    between atoms: _222  and  _223
REMARK   78  A    between atoms: _222  and  _225
REMARK   79  A    between atoms: _225  and  _226
REMARK   80  A    between atoms: _232  and  _234
REMARK   81  A    between atoms: _234  and  _235
REMARK   82  A    between atoms: _234  and  _237
REMARK   83  A    between atoms: _240  and  _242
REMARK   84  A    between atoms: _242  and  _243
REMARK   85  A    between atoms: _242  and  _245
REMARK   86  A    between atoms: _245  and  _246
REMARK   87  A    between atoms: _249  and  _251
REMARK   88  A    between atoms: _251  and  _252
REMARK   89  A    between atoms: _255  and  _257
REMARK   90  A    between atoms: _257  and  _258
REMARK   91  A    between atoms: _257  and  _260
REMARK   92  A    between atoms: _263  and  _265
REMARK   93  A    between atoms: _265  and  _266
REMARK   94  A    between atoms: _265  and  _268
REMARK   95  A    between atoms: _268  and  _269
REMARK   96  A    between atoms: _272  and  _274
REMARK   97  A    between atoms: _274  and  _275
REMARK   98  A    between atoms: _277  and  _279
REMARK   99  A    between atoms: _279  and  _280
REMARK  100  A    between atoms: _279  and  _282
REMARK  101  A    between atoms: _282  and  _283
REMARK  102  A    between atoms: _285  and  _287
REMARK  103  A    between atoms: _287  and  _288
REMARK  104  A    between atoms: _287  and  _290
REMARK  105  A    between atoms: _290  and  _291
REMARK  106  A    between atoms: _294  and  _296
REMARK  107  A    between atoms: _296  and  _297
REMARK  108  A    between atoms: _296  and  _299
REMARK  109  A    between atoms: _299  and  _300
REMARK  110  A    between atoms: _303  and  _305
REMARK  111  A    between atoms: _305  and  _306
REMARK  112  A    between atoms: _305  and  _308
REMARK  113  A    between atoms: _308  and  _309
REMARK  114  A    between atoms: _313  and  _314
REMARK  115  A    between atoms: _320  and  _321
REMARK  116  A    between atoms: _326  and  _328
REMARK  117  A    between atoms: _328  and  _329
REMARK  118  A    between atoms: _328  and  _331
REMARK  119  A    between atoms: _331  and  _332
REMARK  120  A    between atoms: _335  and  _337
REMARK  121  A    between atoms: _337  and  _338
REMARK  122  A    between atoms: _337  and  _340
REMARK  123  A    between atoms: _340  and  _341
REMARK  124  A    between atoms: _344  and  _346
REMARK  125  A    between atoms: _346  and  _347
REMARK  126  A    between atoms: _346  and  _349
REMARK  127  A    between atoms: _351  and  _353
REMARK  128  A    between atoms: _353  and  _354
REMARK  129  A    between atoms: _353  and  _356
REMARK  130  A    between atoms: _359  and  _361
REMARK  131  A    between atoms: _361  and  _362
REMARK  132  A    between atoms: _361  and  _364
REMARK  133  A    between atoms: _364  and  _365
REMARK  134  A    between atoms: _375  and  _377
REMARK  135  A    between atoms: _377  and  _378
REMARK  136  A    between atoms: _377  and  _380
REMARK  137  A    between atoms: _380  and  _381
REMARK  138  A    between atoms: _386  and  _388
REMARK  139  A    between atoms: _388  and  _389
REMARK  140  A    between atoms: _388  and  _391
REMARK  141  A    between atoms: _391  and  _392
REMARK  142  A    between atoms: _392  and  _393
REMARK  143  A    between atoms: _393  and  _394
REMARK                            x       y       z     vdW  Elec       q    Type
REMARK                         _______ _______ _______ _____ _____    ______ ____
ROOT
ATOM      1  O   HOH     1       3.527  -6.780  10.041  0.00  0.00    +0.000 OA
ENDROOT
TORSDOF 0
