REMARK  Name = ../refined-set-2016/4qll/4qll_pocket.pdb
REMARK  277 active torsions:
REMARK  status: ('A' for Active; 'I' for Inactive)
REMARK    1  A    between atoms: _1  and  _3
REMARK    2  A    between atoms: _3  and  _4
REMARK    3  A    between atoms: _3  and  _6
REMARK    4  A    between atoms: _9  and  _11
REMARK    5  A    between atoms: _11  and  _12
REMARK    6  A    between atoms: _11  and  _14
REMARK    7  A    between atoms: _14  and  _15
REMARK    8  A    between atoms: _18  and  _20
REMARK    9  A    between atoms: _20  and  _21
REMARK   10  A    between atoms: _20  and  _23
REMARK   11  A    between atoms: _23  and  _24
REMARK   12  A    between atoms: _26  and  _28
REMARK   13  A    between atoms: _28  and  _29
REMARK   14  A    between atoms: _28  and  _31
REMARK   15  A    between atoms: _31  and  _32
REMARK   16  A    between atoms: _32  and  _33
REMARK   17  A    between atoms: _38  and  _40
REMARK   18  A    between atoms: _40  and  _41
REMARK   19  A    between atoms: _40  and  _43
REMARK   20  A    between atoms: _43  and  _44
REMARK   21  A    between atoms: _44  and  _45
REMARK   22  A    between atoms: _45  and  _46
REMARK   23  A    between atoms: _55  and  _57
REMARK   24  A    between atoms: _57  and  _58
REMARK   25  A    between atoms: _57  and  _60
REMARK   26  A    between atoms: _60  and  _61
REMARK   27  A    between atoms: _66  and  _68
REMARK   28  A    between atoms: _68  and  _69
REMARK   29  A    between atoms: _68  and  _71
REMARK   30  A    between atoms: _71  and  _72
REMARK   31  A    between atoms: _77  and  _78
REMARK   32  A    between atoms: _80  and  _82
REMARK   33  A    between atoms: _82  and  _83
REMARK   34  A    between atoms: _82  and  _85
REMARK   35  A    between atoms: _85  and  _86
REMARK   36  A    between atoms: _91  and  _93
REMARK   37  A    between atoms: _93  and  _94
REMARK   38  A    between atoms: _93  and  _96
REMARK   39  A    between atoms: _96  and  _97
REMARK   40  A    between atoms: _97  and  _98
REMARK   41  A    between atoms: _103  and  _105
REMARK   42  A    between atoms: _105  and  _106
REMARK   43  A    between atoms: _105  and  _108
REMARK   44  A    between atoms: _108  and  _109
REMARK   45  A    between atoms: _109  and  _110
REMARK   46  A    between atoms: _110  and  _111
REMARK   47  A    between atoms: _120  and  _122
REMARK   48  A    between atoms: _122  and  _123
REMARK   49  A    between atoms: _122  and  _125
REMARK   50  A    between atoms: _125  and  _126
REMARK   51  A    between atoms: _129  and  _131
REMARK   52  A    between atoms: _131  and  _132
REMARK   53  A    between atoms: _131  and  _134
REMARK   54  A    between atoms: _134  and  _135
REMARK   55  A    between atoms: _138  and  _140
REMARK   56  A    between atoms: _140  and  _141
REMARK   57  A    between atoms: _140  and  _143
REMARK   58  A    between atoms: _143  and  _144
REMARK   59  A    between atoms: _147  and  _149
REMARK   60  A    between atoms: _149  and  _150
REMARK   61  A    between atoms: _149  and  _152
REMARK   62  A    between atoms: _152  and  _153
REMARK   63  A    between atoms: _156  and  _158
REMARK   64  A    between atoms: _158  and  _159
REMARK   65  A    between atoms: _162  and  _164
REMARK   66  A    between atoms: _164  and  _165
REMARK   67  A    between atoms: _164  and  _167
REMARK   68  A    between atoms: _167  and  _168
REMARK   69  A    between atoms: _171  and  _173
REMARK   70  A    between atoms: _173  and  _174
REMARK   71  A    between atoms: _173  and  _176
REMARK   72  A    between atoms: _176  and  _177
REMARK   73  A    between atoms: _182  and  _184
REMARK   74  A    between atoms: _184  and  _185
REMARK   75  A    between atoms: _184  and  _187
REMARK   76  A    between atoms: _190  and  _192
REMARK   77  A    between atoms: _192  and  _193
REMARK   78  A    between atoms: _192  and  _195
REMARK   79  A    between atoms: _195  and  _196
REMARK   80  A    between atoms: _199  and  _201
REMARK   81  A    between atoms: _201  and  _202
REMARK   82  A    between atoms: _201  and  _204
REMARK   83  A    between atoms: _204  and  _205
REMARK   84  A    between atoms: _208  and  _210
REMARK   85  A    between atoms: _210  and  _211
REMARK   86  A    between atoms: _210  and  _213
REMARK   87  A    between atoms: _213  and  _214
REMARK   88  A    between atoms: _220  and  _222
REMARK   89  A    between atoms: _222  and  _223
REMARK   90  A    between atoms: _222  and  _225
REMARK   91  A    between atoms: _225  and  _226
REMARK   92  A    between atoms: _231  and  _233
REMARK   93  A    between atoms: _233  and  _234
REMARK   94  A    between atoms: _233  and  _236
REMARK   95  A    between atoms: _236  and  _237
REMARK   96  A    between atoms: _247  and  _249
REMARK   97  A    between atoms: _249  and  _250
REMARK   98  A    between atoms: _249  and  _252
REMARK   99  A    between atoms: _252  and  _253
REMARK  100  A    between atoms: _258  and  _259
REMARK  101  A    between atoms: _261  and  _263
REMARK  102  A    between atoms: _263  and  _264
REMARK  103  A    between atoms: _267  and  _269
REMARK  104  A    between atoms: _269  and  _270
REMARK  105  A    between atoms: _269  and  _272
REMARK  106  A    between atoms: _272  and  _273
REMARK  107  A    between atoms: _279  and  _281
REMARK  108  A    between atoms: _281  and  _282
REMARK  109  A    between atoms: _281  and  _284
REMARK  110  A    between atoms: _284  and  _285
REMARK  111  A    between atoms: _290  and  _292
REMARK  112  A    between atoms: _292  and  _293
REMARK  113  A    between atoms: _292  and  _295
REMARK  114  A    between atoms: _295  and  _296
REMARK  115  A    between atoms: _301  and  _303
REMARK  116  A    between atoms: _303  and  _304
REMARK  117  A    between atoms: _303  and  _306
REMARK  118  A    between atoms: _306  and  _307
REMARK  119  A    between atoms: _307  and  _308
REMARK  120  A    between atoms: _313  and  _315
REMARK  121  A    between atoms: _315  and  _316
REMARK  122  A    between atoms: _315  and  _318
REMARK  123  A    between atoms: _318  and  _319
REMARK  124  A    between atoms: _324  and  _325
REMARK  125  A    between atoms: _327  and  _329
REMARK  126  A    between atoms: _329  and  _330
REMARK  127  A    between atoms: _329  and  _332
REMARK  128  A    between atoms: _332  and  _333
REMARK  129  A    between atoms: _336  and  _338
REMARK  130  A    between atoms: _338  and  _339
REMARK  131  A    between atoms: _342  and  _344
REMARK  132  A    between atoms: _344  and  _345
REMARK  133  A    between atoms: _344  and  _347
REMARK  134  A    between atoms: _347  and  _348
REMARK  135  A    between atoms: _350  and  _352
REMARK  136  A    between atoms: _352  and  _353
REMARK  137  A    between atoms: _352  and  _355
REMARK  138  A    between atoms: _355  and  _356
REMARK  139  A    between atoms: _361  and  _362
REMARK  140  A    between atoms: _364  and  _366
REMARK  141  A    between atoms: _366  and  _367
REMARK  142  A    between atoms: _366  and  _369
REMARK  143  A    between atoms: _369  and  _370
REMARK  144  A    between atoms: _370  and  _371
REMARK  145  A    between atoms: _373  and  _375
REMARK  146  A    between atoms: _375  and  _376
REMARK  147  A    between atoms: _375  and  _378
REMARK  148  A    between atoms: _378  and  _379
REMARK  149  A    between atoms: _379  and  _380
REMARK  150  A    between atoms: _380  and  _381
REMARK  151  A    between atoms: _381  and  _382
REMARK  152  A    between atoms: _386  and  _388
REMARK  153  A    between atoms: _388  and  _389
REMARK  154  A    between atoms: _388  and  _391
REMARK  155  A    between atoms: _391  and  _392
REMARK  156  A    between atoms: _397  and  _398
REMARK  157  A    between atoms: _400  and  _402
REMARK  158  A    between atoms: _402  and  _403
REMARK  159  A    between atoms: _402  and  _405
REMARK  160  A    between atoms: _405  and  _406
REMARK  161  A    between atoms: _408  and  _410
REMARK  162  A    between atoms: _410  and  _411
REMARK  163  A    between atoms: _414  and  _416
REMARK  164  A    between atoms: _416  and  _417
REMARK  165  A    between atoms: _416  and  _419
REMARK  166  A    between atoms: _419  and  _420
REMARK  167  A    between atoms: _423  and  _425
REMARK  168  A    between atoms: _425  and  _426
REMARK  169  A    between atoms: _425  and  _428
REMARK  170  A    between atoms: _428  and  _429
REMARK  171  A    between atoms: _439  and  _441
REMARK  172  A    between atoms: _441  and  _442
REMARK  173  A    between atoms: _441  and  _444
REMARK  174  A    between atoms: _444  and  _445
REMARK  175  A    between atoms: _445  and  _446
REMARK  176  A    between atoms: _451  and  _453
REMARK  177  A    between atoms: _453  and  _454
REMARK  178  A    between atoms: _453  and  _456
REMARK  179  A    between atoms: _459  and  _461
REMARK  180  A    between atoms: _461  and  _462
REMARK  181  A    between atoms: _461  and  _464
REMARK  182  A    between atoms: _464  and  _465
REMARK  183  A    between atoms: _468  and  _470
REMARK  184  A    between atoms: _470  and  _471
REMARK  185  A    between atoms: _474  and  _476
REMARK  186  A    between atoms: _476  and  _477
REMARK  187  A    between atoms: _476  and  _479
REMARK  188  A    between atoms: _482  and  _484
REMARK  189  A    between atoms: _484  and  _485
REMARK  190  A    between atoms: _484  and  _487
REMARK  191  A    between atoms: _487  and  _488
REMARK  192  A    between atoms: _494  and  _496
REMARK  193  A    between atoms: _496  and  _497
REMARK  194  A    between atoms: _496  and  _499
REMARK  195  A    between atoms: _499  and  _500
REMARK  196  A    between atoms: _502  and  _504
REMARK  197  A    between atoms: _504  and  _505
REMARK  198  A    between atoms: _504  and  _507
REMARK  199  A    between atoms: _507  and  _508
REMARK  200  A    between atoms: _513  and  _515
REMARK  201  A    between atoms: _515  and  _516
REMARK  202  A    between atoms: _515  and  _518
REMARK  203  A    between atoms: _518  and  _519
REMARK  204  A    between atoms: _529  and  _531
REMARK  205  A    between atoms: _531  and  _532
REMARK  206  A    between atoms: _531  and  _534
REMARK  207  A    between atoms: _534  and  _535
REMARK  208  A    between atoms: _538  and  _540
REMARK  209  A    between atoms: _540  and  _541
REMARK  210  A    between atoms: _540  and  _543
REMARK  211  A    between atoms: _543  and  _544
REMARK  212  A    between atoms: _549  and  _550
REMARK  213  A    between atoms: _552  and  _554
REMARK  214  A    between atoms: _554  and  _555
REMARK  215  A    between atoms: _554  and  _557
REMARK  216  A    between atoms: _557  and  _558
REMARK  217  A    between atoms: _561  and  _563
REMARK  218  A    between atoms: _563  and  _564
REMARK  219  A    between atoms: _563  and  _566
REMARK  220  A    between atoms: _566  and  _567
REMARK  221  A    between atoms: _567  and  _568
REMARK  222  A    between atoms: _571  and  _573
REMARK  223  A    between atoms: _573  and  _574
REMARK  224  A    between atoms: _573  and  _576
REMARK  225  A    between atoms: _576  and  _577
REMARK  226  A    between atoms: _582  and  _584
REMARK  227  A    between atoms: _584  and  _585
REMARK  228  A    between atoms: _587  and  _589
REMARK  229  A    between atoms: _589  and  _590
REMARK  230  A    between atoms: _589  and  _592
REMARK  231  A    between atoms: _592  and  _593
REMARK  232  A    between atoms: _593  and  _594
REMARK  233  A    between atoms: _596  and  _598
REMARK  234  A    between atoms: _598  and  _599
REMARK  235  A    between atoms: _598  and  _601
REMARK  236  A    between atoms: _601  and  _602
REMARK  237  A    between atoms: _605  and  _607
REMARK  238  A    between atoms: _607  and  _608
REMARK  239  A    between atoms: _607  and  _610
REMARK  240  A    between atoms: _610  and  _611
REMARK  241  A    between atoms: _621  and  _623
REMARK  242  A    between atoms: _623  and  _624
REMARK  243  A    between atoms: _623  and  _626
REMARK  244  A    between atoms: _626  and  _627
REMARK  245  A    between atoms: _629  and  _631
REMARK  246  A    between atoms: _631  and  _632
REMARK  247  A    between atoms: _631  and  _634
REMARK  248  A    between atoms: _634  and  _635
REMARK  249  A    between atoms: _640  and  _642
REMARK  250  A    between atoms: _642  and  _643
REMARK  251  A    between atoms: _642  and  _645
REMARK  252  A    between atoms: _645  and  _646
REMARK  253  A    between atoms: _652  and  _654
REMARK  254  A    between atoms: _654  and  _655
REMARK  255  A    between atoms: _654  and  _657
REMARK  256  A    between atoms: _657  and  _658
REMARK  257  A    between atoms: _658  and  _659
REMARK  258  A    between atoms: _662  and  _664
REMARK  259  A    between atoms: _664  and  _665
REMARK  260  A    between atoms: _664  and  _667
REMARK  261  A    between atoms: _667  and  _668
REMARK  262  A    between atoms: _678  and  _680
REMARK  263  A    between atoms: _680  and  _681
REMARK  264  A    between atoms: _680  and  _683
REMARK  265  A    between atoms: _683  and  _684
REMARK  266  A    between atoms: _687  and  _689
REMARK  267  A    between atoms: _689  and  _690
REMARK  268  A    between atoms: _689  and  _692
REMARK  269  A    between atoms: _692  and  _693
REMARK  270  A    between atoms: _695  and  _697
REMARK  271  A    between atoms: _697  and  _698
REMARK  272  A    between atoms: _697  and  _700
REMARK  273  A    between atoms: _700  and  _701
REMARK  274  A    between atoms: _703  and  _705
REMARK  275  A    between atoms: _705  and  _706
REMARK  276  A    between atoms: _705  and  _708
REMARK  277  A    between atoms: _708  and  _709
REMARK                            x       y       z     vdW  Elec       q    Type
REMARK                         _______ _______ _______ _____ _____    ______ ____
ROOT
ATOM      1  CA  THR A   2       8.071   2.829  27.433  0.00  0.00    +0.176 C 
ENDROOT
BRANCH   1   4
ATOM      2  C   VAL A   1       9.185   4.860  28.259  0.00  0.00    +0.238 C 
ATOM      3  O   VAL A   1       8.153   5.531  28.346  0.00  0.00    -0.274 OA
ATOM      4  N   THR A   2       9.243   3.650  27.719  0.00  0.00    -0.295 N 
ATOM      5  H   THR A   2      10.180   3.263  27.485  0.00  0.00    +0.150 HD
BRANCH   2   6
ATOM      6  CA  VAL A   1      10.542   5.421  28.714  0.00  0.00    +0.145 C 
BRANCH   6   7
ATOM      7  CB  VAL A   1      11.000   4.972  30.146  0.00  0.00    +0.025 C 
ATOM      8  CG2 VAL A   1      10.666   5.970  31.230  0.00  0.00    +0.002 C 
ATOM      9  CG1 VAL A   1      10.574   3.546  30.496  0.00  0.00    +0.002 C 
ENDBRANCH   6   7
BRANCH   6  10
ATOM     10  N   VAL A   1      10.624   6.868  28.526  0.00  0.00    -0.238 NA
ATOM     11  H   VAL A   1       9.803   7.464  28.752  0.00  0.00    +0.142 HD
ENDBRANCH   6  10
ENDBRANCH   2   6
ENDBRANCH   1   4
BRANCH   1  12
ATOM     12  C   THR A   2       8.424   1.396  27.819  0.00  0.00    +0.243 C 
ATOM     13  O   THR A   2       9.551   1.115  28.209  0.00  0.00    -0.273 OA
ATOM     14  N   SER A   3       7.461   0.491  27.696  0.00  0.00    -0.296 N 
ATOM     15  H   SER A   3       6.483   0.808  27.540  0.00  0.00    +0.150 HD
BRANCH  14  16
ATOM     16  CA  SER A   3       7.742  -0.938  27.775  0.00  0.00    +0.166 C 
BRANCH  16  17
ATOM     17  C   SER A   3       7.029  -1.623  26.616  0.00  0.00    +0.229 C 
ATOM     18  O   SER A   3       6.060  -1.078  26.079  0.00  0.00    -0.286 OA
ENDBRANCH  16  17
BRANCH  16  19
ATOM     19  CB  SER A   3       7.313  -1.537  29.120  0.00  0.00    +0.165 C 
BRANCH  19  20
ATOM     20  OG  SER A   3       5.923  -1.876  29.133  0.00  0.00    -0.380 OA
ATOM     21  H   SER A   3       5.384  -1.062  28.969  0.00  0.00    +0.211 HD
ENDBRANCH  19  20
ENDBRANCH  16  19
ENDBRANCH  14  16
ENDBRANCH   1  12
BRANCH   1  22
ATOM     22  CB  THR A   2       7.687   2.849  25.940  0.00  0.00    +0.137 C 
ATOM     23  CG2 THR A   2       7.348   4.273  25.472  0.00  0.00    +0.034 C 
BRANCH  22  24
ATOM     24  OG1 THR A   2       8.756   2.299  25.155  0.00  0.00    -0.382 OA
ATOM     25  HG1 THR A   2       8.925   1.365  25.438  0.00  0.00    +0.210 HD
ENDBRANCH  22  24
ENDBRANCH   1  22
TORSDOF 11
REMARK  Name = ../refined-set-2016/4qll/4qll_pocket.pdb
REMARK  277 active torsions:
REMARK  status: ('A' for Active; 'I' for Inactive)
REMARK    1  A    between atoms: _1  and  _3
REMARK    2  A    between atoms: _3  and  _4
REMARK    3  A    between atoms: _3  and  _6
REMARK    4  A    between atoms: _9  and  _11
REMARK    5  A    between atoms: _11  and  _12
REMARK    6  A    between atoms: _11  and  _14
REMARK    7  A    between atoms: _14  and  _15
REMARK    8  A    between atoms: _18  and  _20
REMARK    9  A    between atoms: _20  and  _21
REMARK   10  A    between atoms: _20  and  _23
REMARK   11  A    between atoms: _23  and  _24
REMARK   12  A    between atoms: _26  and  _28
REMARK   13  A    between atoms: _28  and  _29
REMARK   14  A    between atoms: _28  and  _31
REMARK   15  A    between atoms: _31  and  _32
REMARK   16  A    between atoms: _32  and  _33
REMARK   17  A    between atoms: _38  and  _40
REMARK   18  A    between atoms: _40  and  _41
REMARK   19  A    between atoms: _40  and  _43
REMARK   20  A    between atoms: _43  and  _44
REMARK   21  A    between atoms: _44  and  _45
REMARK   22  A    between atoms: _45  and  _46
REMARK   23  A    between atoms: _55  and  _57
REMARK   24  A    between atoms: _57  and  _58
REMARK   25  A    between atoms: _57  and  _60
REMARK   26  A    between atoms: _60  and  _61
REMARK   27  A    between atoms: _66  and  _68
REMARK   28  A    between atoms: _68  and  _69
REMARK   29  A    between atoms: _68  and  _71
REMARK   30  A    between atoms: _71  and  _72
REMARK   31  A    between atoms: _77  and  _78
REMARK   32  A    between atoms: _80  and  _82
REMARK   33  A    between atoms: _82  and  _83
REMARK   34  A    between atoms: _82  and  _85
REMARK   35  A    between atoms: _85  and  _86
REMARK   36  A    between atoms: _91  and  _93
REMARK   37  A    between atoms: _93  and  _94
REMARK   38  A    between atoms: _93  and  _96
REMARK   39  A    between atoms: _96  and  _97
REMARK   40  A    between atoms: _97  and  _98
REMARK   41  A    between atoms: _103  and  _105
REMARK   42  A    between atoms: _105  and  _106
REMARK   43  A    between atoms: _105  and  _108
REMARK   44  A    between atoms: _108  and  _109
REMARK   45  A    between atoms: _109  and  _110
REMARK   46  A    between atoms: _110  and  _111
REMARK   47  A    between atoms: _120  and  _122
REMARK   48  A    between atoms: _122  and  _123
REMARK   49  A    between atoms: _122  and  _125
REMARK   50  A    between atoms: _125  and  _126
REMARK   51  A    between atoms: _129  and  _131
REMARK   52  A    between atoms: _131  and  _132
REMARK   53  A    between atoms: _131  and  _134
REMARK   54  A    between atoms: _134  and  _135
REMARK   55  A    between atoms: _138  and  _140
REMARK   56  A    between atoms: _140  and  _141
REMARK   57  A    between atoms: _140  and  _143
REMARK   58  A    between atoms: _143  and  _144
REMARK   59  A    between atoms: _147  and  _149
REMARK   60  A    between atoms: _149  and  _150
REMARK   61  A    between atoms: _149  and  _152
REMARK   62  A    between atoms: _152  and  _153
REMARK   63  A    between atoms: _156  and  _158
REMARK   64  A    between atoms: _158  and  _159
REMARK   65  A    between atoms: _162  and  _164
REMARK   66  A    between atoms: _164  and  _165
REMARK   67  A    between atoms: _164  and  _167
REMARK   68  A    between atoms: _167  and  _168
REMARK   69  A    between atoms: _171  and  _173
REMARK   70  A    between atoms: _173  and  _174
REMARK   71  A    between atoms: _173  and  _176
REMARK   72  A    between atoms: _176  and  _177
REMARK   73  A    between atoms: _182  and  _184
REMARK   74  A    between atoms: _184  and  _185
REMARK   75  A    between atoms: _184  and  _187
REMARK   76  A    between atoms: _190  and  _192
REMARK   77  A    between atoms: _192  and  _193
REMARK   78  A    between atoms: _192  and  _195
REMARK   79  A    between atoms: _195  and  _196
REMARK   80  A    between atoms: _199  and  _201
REMARK   81  A    between atoms: _201  and  _202
REMARK   82  A    between atoms: _201  and  _204
REMARK   83  A    between atoms: _204  and  _205
REMARK   84  A    between atoms: _208  and  _210
REMARK   85  A    between atoms: _210  and  _211
REMARK   86  A    between atoms: _210  and  _213
REMARK   87  A    between atoms: _213  and  _214
REMARK   88  A    between atoms: _220  and  _222
REMARK   89  A    between atoms: _222  and  _223
REMARK   90  A    between atoms: _222  and  _225
REMARK   91  A    between atoms: _225  and  _226
REMARK   92  A    between atoms: _231  and  _233
REMARK   93  A    between atoms: _233  and  _234
REMARK   94  A    between atoms: _233  and  _236
REMARK   95  A    between atoms: _236  and  _237
REMARK   96  A    between atoms: _247  and  _249
REMARK   97  A    between atoms: _249  and  _250
REMARK   98  A    between atoms: _249  and  _252
REMARK   99  A    between atoms: _252  and  _253
REMARK  100  A    between atoms: _258  and  _259
REMARK  101  A    between atoms: _261  and  _263
REMARK  102  A    between atoms: _263  and  _264
REMARK  103  A    between atoms: _267  and  _269
REMARK  104  A    between atoms: _269  and  _270
REMARK  105  A    between atoms: _269  and  _272
REMARK  106  A    between atoms: _272  and  _273
REMARK  107  A    between atoms: _279  and  _281
REMARK  108  A    between atoms: _281  and  _282
REMARK  109  A    between atoms: _281  and  _284
REMARK  110  A    between atoms: _284  and  _285
REMARK  111  A    between atoms: _290  and  _292
REMARK  112  A    between atoms: _292  and  _293
REMARK  113  A    between atoms: _292  and  _295
REMARK  114  A    between atoms: _295  and  _296
REMARK  115  A    between atoms: _301  and  _303
REMARK  116  A    between atoms: _303  and  _304
REMARK  117  A    between atoms: _303  and  _306
REMARK  118  A    between atoms: _306  and  _307
REMARK  119  A    between atoms: _307  and  _308
REMARK  120  A    between atoms: _313  and  _315
REMARK  121  A    between atoms: _315  and  _316
REMARK  122  A    between atoms: _315  and  _318
REMARK  123  A    between atoms: _318  and  _319
REMARK  124  A    between atoms: _324  and  _325
REMARK  125  A    between atoms: _327  and  _329
REMARK  126  A    between atoms: _329  and  _330
REMARK  127  A    between atoms: _329  and  _332
REMARK  128  A    between atoms: _332  and  _333
REMARK  129  A    between atoms: _336  and  _338
REMARK  130  A    between atoms: _338  and  _339
REMARK  131  A    between atoms: _342  and  _344
REMARK  132  A    between atoms: _344  and  _345
REMARK  133  A    between atoms: _344  and  _347
REMARK  134  A    between atoms: _347  and  _348
REMARK  135  A    between atoms: _350  and  _352
REMARK  136  A    between atoms: _352  and  _353
REMARK  137  A    between atoms: _352  and  _355
REMARK  138  A    between atoms: _355  and  _356
REMARK  139  A    between atoms: _361  and  _362
REMARK  140  A    between atoms: _364  and  _366
REMARK  141  A    between atoms: _366  and  _367
REMARK  142  A    between atoms: _366  and  _369
REMARK  143  A    between atoms: _369  and  _370
REMARK  144  A    between atoms: _370  and  _371
REMARK  145  A    between atoms: _373  and  _375
REMARK  146  A    between atoms: _375  and  _376
REMARK  147  A    between atoms: _375  and  _378
REMARK  148  A    between atoms: _378  and  _379
REMARK  149  A    between atoms: _379  and  _380
REMARK  150  A    between atoms: _380  and  _381
REMARK  151  A    between atoms: _381  and  _382
REMARK  152  A    between atoms: _386  and  _388
REMARK  153  A    between atoms: _388  and  _389
REMARK  154  A    between atoms: _388  and  _391
REMARK  155  A    between atoms: _391  and  _392
REMARK  156  A    between atoms: _397  and  _398
REMARK  157  A    between atoms: _400  and  _402
REMARK  158  A    between atoms: _402  and  _403
REMARK  159  A    between atoms: _402  and  _405
REMARK  160  A    between atoms: _405  and  _406
REMARK  161  A    between atoms: _408  and  _410
REMARK  162  A    between atoms: _410  and  _411
REMARK  163  A    between atoms: _414  and  _416
REMARK  164  A    between atoms: _416  and  _417
REMARK  165  A    between atoms: _416  and  _419
REMARK  166  A    between atoms: _419  and  _420
REMARK  167  A    between atoms: _423  and  _425
REMARK  168  A    between atoms: _425  and  _426
REMARK  169  A    between atoms: _425  and  _428
REMARK  170  A    between atoms: _428  and  _429
REMARK  171  A    between atoms: _439  and  _441
REMARK  172  A    between atoms: _441  and  _442
REMARK  173  A    between atoms: _441  and  _444
REMARK  174  A    between atoms: _444  and  _445
REMARK  175  A    between atoms: _445  and  _446
REMARK  176  A    between atoms: _451  and  _453
REMARK  177  A    between atoms: _453  and  _454
REMARK  178  A    between atoms: _453  and  _456
REMARK  179  A    between atoms: _459  and  _461
REMARK  180  A    between atoms: _461  and  _462
REMARK  181  A    between atoms: _461  and  _464
REMARK  182  A    between atoms: _464  and  _465
REMARK  183  A    between atoms: _468  and  _470
REMARK  184  A    between atoms: _470  and  _471
REMARK  185  A    between atoms: _474  and  _476
REMARK  186  A    between atoms: _476  and  _477
REMARK  187  A    between atoms: _476  and  _479
REMARK  188  A    between atoms: _482  and  _484
REMARK  189  A    between atoms: _484  and  _485
REMARK  190  A    between atoms: _484  and  _487
REMARK  191  A    between atoms: _487  and  _488
REMARK  192  A    between atoms: _494  and  _496
REMARK  193  A    between atoms: _496  and  _497
REMARK  194  A    between atoms: _496  and  _499
REMARK  195  A    between atoms: _499  and  _500
REMARK  196  A    between atoms: _502  and  _504
REMARK  197  A    between atoms: _504  and  _505
REMARK  198  A    between atoms: _504  and  _507
REMARK  199  A    between atoms: _507  and  _508
REMARK  200  A    between atoms: _513  and  _515
REMARK  201  A    between atoms: _515  and  _516
REMARK  202  A    between atoms: _515  and  _518
REMARK  203  A    between atoms: _518  and  _519
REMARK  204  A    between atoms: _529  and  _531
REMARK  205  A    between atoms: _531  and  _532
REMARK  206  A    between atoms: _531  and  _534
REMARK  207  A    between atoms: _534  and  _535
REMARK  208  A    between atoms: _538  and  _540
REMARK  209  A    between atoms: _540  and  _541
REMARK  210  A    between atoms: _540  and  _543
REMARK  211  A    between atoms: _543  and  _544
REMARK  212  A    between atoms: _549  and  _550
REMARK  213  A    between atoms: _552  and  _554
REMARK  214  A    between atoms: _554  and  _555
REMARK  215  A    between atoms: _554  and  _557
REMARK  216  A    between atoms: _557  and  _558
REMARK  217  A    between atoms: _561  and  _563
REMARK  218  A    between atoms: _563  and  _564
REMARK  219  A    between atoms: _563  and  _566
REMARK  220  A    between atoms: _566  and  _567
REMARK  221  A    between atoms: _567  and  _568
REMARK  222  A    between atoms: _571  and  _573
REMARK  223  A    between atoms: _573  and  _574
REMARK  224  A    between atoms: _573  and  _576
REMARK  225  A    between atoms: _576  and  _577
REMARK  226  A    between atoms: _582  and  _584
REMARK  227  A    between atoms: _584  and  _585
REMARK  228  A    between atoms: _587  and  _589
REMARK  229  A    between atoms: _589  and  _590
REMARK  230  A    between atoms: _589  and  _592
REMARK  231  A    between atoms: _592  and  _593
REMARK  232  A    between atoms: _593  and  _594
REMARK  233  A    between atoms: _596  and  _598
REMARK  234  A    between atoms: _598  and  _599
REMARK  235  A    between atoms: _598  and  _601
REMARK  236  A    between atoms: _601  and  _602
REMARK  237  A    between atoms: _605  and  _607
REMARK  238  A    between atoms: _607  and  _608
REMARK  239  A    between atoms: _607  and  _610
REMARK  240  A    between atoms: _610  and  _611
REMARK  241  A    between atoms: _621  and  _623
REMARK  242  A    between atoms: _623  and  _624
REMARK  243  A    between atoms: _623  and  _626
REMARK  244  A    between atoms: _626  and  _627
REMARK  245  A    between atoms: _629  and  _631
REMARK  246  A    between atoms: _631  and  _632
REMARK  247  A    between atoms: _631  and  _634
REMARK  248  A    between atoms: _634  and  _635
REMARK  249  A    between atoms: _640  and  _642
REMARK  250  A    between atoms: _642  and  _643
REMARK  251  A    between atoms: _642  and  _645
REMARK  252  A    between atoms: _645  and  _646
REMARK  253  A    between atoms: _652  and  _654
REMARK  254  A    between atoms: _654  and  _655
REMARK  255  A    between atoms: _654  and  _657
REMARK  256  A    between atoms: _657  and  _658
REMARK  257  A    between atoms: _658  and  _659
REMARK  258  A    between atoms: _662  and  _664
REMARK  259  A    between atoms: _664  and  _665
REMARK  260  A    between atoms: _664  and  _667
REMARK  261  A    between atoms: _667  and  _668
REMARK  262  A    between atoms: _678  and  _680
REMARK  263  A    between atoms: _680  and  _681
REMARK  264  A    between atoms: _680  and  _683
REMARK  265  A    between atoms: _683  and  _684
REMARK  266  A    between atoms: _687  and  _689
REMARK  267  A    between atoms: _689  and  _690
REMARK  268  A    between atoms: _689  and  _692
REMARK  269  A    between atoms: _692  and  _693
REMARK  270  A    between atoms: _695  and  _697
REMARK  271  A    between atoms: _697  and  _698
REMARK  272  A    between atoms: _697  and  _700
REMARK  273  A    between atoms: _700  and  _701
REMARK  274  A    between atoms: _703  and  _705
REMARK  275  A    between atoms: _705  and  _706
REMARK  276  A    between atoms: _705  and  _708
REMARK  277  A    between atoms: _708  and  _709
REMARK                            x       y       z     vdW  Elec       q    Type
REMARK                         _______ _______ _______ _____ _____    ______ ____
ROOT
ATOM      1  CB  GLN A   1       2.945  -0.433  28.032  0.00  0.00    +0.035 C 
ENDROOT
BRANCH   1   2
ATOM      2  CA  GLN A   1       2.452  -1.232  26.838  0.00  0.00    +0.134 C 
BRANCH   2   3
ATOM      3  N   GLN A   1       3.237  -2.443  26.654  0.00  0.00    -0.239 NA
ATOM      4  H   GLN A   1       4.198  -2.500  27.048  0.00  0.00    +0.142 HD
ENDBRANCH   2   3
BRANCH   2   5
ATOM      5  C   GLN A   1       2.375  -0.351  25.594  0.00  0.00    +0.224 C 
ATOM      6  O   GLN A   1       1.428   0.434  25.475  0.00  0.00    -0.287 OA
ENDBRANCH   2   5
ENDBRANCH   1   2
BRANCH   1   7
ATOM      7  CG  GLN A   1       2.869  -1.225  29.322  0.00  0.00    +0.087 C 
BRANCH   7   8
ATOM      8  CD  GLN A   1       3.284  -0.412  30.527  0.00  0.00    +0.219 C 
ATOM      9  NE2 GLN A   1       2.341   0.342  31.087  0.00  0.00    -0.329 N 
ATOM     10 HE21 GLN A   1       2.566   0.922  31.920  0.00  0.00    +0.145 HD
ATOM     11 HE22 GLN A   1       1.379   0.351  30.691  0.00  0.00    +0.145 HD
ATOM     12  OE1 GLN A   1       4.439  -0.462  30.952  0.00  0.00    -0.275 OA
ENDBRANCH   7   8
ENDBRANCH   1   7
TORSDOF 5
REMARK  Name = ../refined-set-2016/4qll/4qll_pocket.pdb
REMARK  277 active torsions:
REMARK  status: ('A' for Active; 'I' for Inactive)
REMARK    1  A    between atoms: _1  and  _3
REMARK    2  A    between atoms: _3  and  _4
REMARK    3  A    between atoms: _3  and  _6
REMARK    4  A    between atoms: _9  and  _11
REMARK    5  A    between atoms: _11  and  _12
REMARK    6  A    between atoms: _11  and  _14
REMARK    7  A    between atoms: _14  and  _15
REMARK    8  A    between atoms: _18  and  _20
REMARK    9  A    between atoms: _20  and  _21
REMARK   10  A    between atoms: _20  and  _23
REMARK   11  A    between atoms: _23  and  _24
REMARK   12  A    between atoms: _26  and  _28
REMARK   13  A    between atoms: _28  and  _29
REMARK   14  A    between atoms: _28  and  _31
REMARK   15  A    between atoms: _31  and  _32
REMARK   16  A    between atoms: _32  and  _33
REMARK   17  A    between atoms: _38  and  _40
REMARK   18  A    between atoms: _40  and  _41
REMARK   19  A    between atoms: _40  and  _43
REMARK   20  A    between atoms: _43  and  _44
REMARK   21  A    between atoms: _44  and  _45
REMARK   22  A    between atoms: _45  and  _46
REMARK   23  A    between atoms: _55  and  _57
REMARK   24  A    between atoms: _57  and  _58
REMARK   25  A    between atoms: _57  and  _60
REMARK   26  A    between atoms: _60  and  _61
REMARK   27  A    between atoms: _66  and  _68
REMARK   28  A    between atoms: _68  and  _69
REMARK   29  A    between atoms: _68  and  _71
REMARK   30  A    between atoms: _71  and  _72
REMARK   31  A    between atoms: _77  and  _78
REMARK   32  A    between atoms: _80  and  _82
REMARK   33  A    between atoms: _82  and  _83
REMARK   34  A    between atoms: _82  and  _85
REMARK   35  A    between atoms: _85  and  _86
REMARK   36  A    between atoms: _91  and  _93
REMARK   37  A    between atoms: _93  and  _94
REMARK   38  A    between atoms: _93  and  _96
REMARK   39  A    between atoms: _96  and  _97
REMARK   40  A    between atoms: _97  and  _98
REMARK   41  A    between atoms: _103  and  _105
REMARK   42  A    between atoms: _105  and  _106
REMARK   43  A    between atoms: _105  and  _108
REMARK   44  A    between atoms: _108  and  _109
REMARK   45  A    between atoms: _109  and  _110
REMARK   46  A    between atoms: _110  and  _111
REMARK   47  A    between atoms: _120  and  _122
REMARK   48  A    between atoms: _122  and  _123
REMARK   49  A    between atoms: _122  and  _125
REMARK   50  A    between atoms: _125  and  _126
REMARK   51  A    between atoms: _129  and  _131
REMARK   52  A    between atoms: _131  and  _132
REMARK   53  A    between atoms: _131  and  _134
REMARK   54  A    between atoms: _134  and  _135
REMARK   55  A    between atoms: _138  and  _140
REMARK   56  A    between atoms: _140  and  _141
REMARK   57  A    between atoms: _140  and  _143
REMARK   58  A    between atoms: _143  and  _144
REMARK   59  A    between atoms: _147  and  _149
REMARK   60  A    between atoms: _149  and  _150
REMARK   61  A    between atoms: _149  and  _152
REMARK   62  A    between atoms: _152  and  _153
REMARK   63  A    between atoms: _156  and  _158
REMARK   64  A    between atoms: _158  and  _159
REMARK   65  A    between atoms: _162  and  _164
REMARK   66  A    between atoms: _164  and  _165
REMARK   67  A    between atoms: _164  and  _167
REMARK   68  A    between atoms: _167  and  _168
REMARK   69  A    between atoms: _171  and  _173
REMARK   70  A    between atoms: _173  and  _174
REMARK   71  A    between atoms: _173  and  _176
REMARK   72  A    between atoms: _176  and  _177
REMARK   73  A    between atoms: _182  and  _184
REMARK   74  A    between atoms: _184  and  _185
REMARK   75  A    between atoms: _184  and  _187
REMARK   76  A    between atoms: _190  and  _192
REMARK   77  A    between atoms: _192  and  _193
REMARK   78  A    between atoms: _192  and  _195
REMARK   79  A    between atoms: _195  and  _196
REMARK   80  A    between atoms: _199  and  _201
REMARK   81  A    between atoms: _201  and  _202
REMARK   82  A    between atoms: _201  and  _204
REMARK   83  A    between atoms: _204  and  _205
REMARK   84  A    between atoms: _208  and  _210
REMARK   85  A    between atoms: _210  and  _211
REMARK   86  A    between atoms: _210  and  _213
REMARK   87  A    between atoms: _213  and  _214
REMARK   88  A    between atoms: _220  and  _222
REMARK   89  A    between atoms: _222  and  _223
REMARK   90  A    between atoms: _222  and  _225
REMARK   91  A    between atoms: _225  and  _226
REMARK   92  A    between atoms: _231  and  _233
REMARK   93  A    between atoms: _233  and  _234
REMARK   94  A    between atoms: _233  and  _236
REMARK   95  A    between atoms: _236  and  _237
REMARK   96  A    between atoms: _247  and  _249
REMARK   97  A    between atoms: _249  and  _250
REMARK   98  A    between atoms: _249  and  _252
REMARK   99  A    between atoms: _252  and  _253
REMARK  100  A    between atoms: _258  and  _259
REMARK  101  A    between atoms: _261  and  _263
REMARK  102  A    between atoms: _263  and  _264
REMARK  103  A    between atoms: _267  and  _269
REMARK  104  A    between atoms: _269  and  _270
REMARK  105  A    between atoms: _269  and  _272
REMARK  106  A    between atoms: _272  and  _273
REMARK  107  A    between atoms: _279  and  _281
REMARK  108  A    between atoms: _281  and  _282
REMARK  109  A    between atoms: _281  and  _284
REMARK  110  A    between atoms: _284  and  _285
REMARK  111  A    between atoms: _290  and  _292
REMARK  112  A    between atoms: _292  and  _293
REMARK  113  A    between atoms: _292  and  _295
REMARK  114  A    between atoms: _295  and  _296
REMARK  115  A    between atoms: _301  and  _303
REMARK  116  A    between atoms: _303  and  _304
REMARK  117  A    between atoms: _303  and  _306
REMARK  118  A    between atoms: _306  and  _307
REMARK  119  A    between atoms: _307  and  _308
REMARK  120  A    between atoms: _313  and  _315
REMARK  121  A    between atoms: _315  and  _316
REMARK  122  A    between atoms: _315  and  _318
REMARK  123  A    between atoms: _318  and  _319
REMARK  124  A    between atoms: _324  and  _325
REMARK  125  A    between atoms: _327  and  _329
REMARK  126  A    between atoms: _329  and  _330
REMARK  127  A    between atoms: _329  and  _332
REMARK  128  A    between atoms: _332  and  _333
REMARK  129  A    between atoms: _336  and  _338
REMARK  130  A    between atoms: _338  and  _339
REMARK  131  A    between atoms: _342  and  _344
REMARK  132  A    between atoms: _344  and  _345
REMARK  133  A    between atoms: _344  and  _347
REMARK  134  A    between atoms: _347  and  _348
REMARK  135  A    between atoms: _350  and  _352
REMARK  136  A    between atoms: _352  and  _353
REMARK  137  A    between atoms: _352  and  _355
REMARK  138  A    between atoms: _355  and  _356
REMARK  139  A    between atoms: _361  and  _362
REMARK  140  A    between atoms: _364  and  _366
REMARK  141  A    between atoms: _366  and  _367
REMARK  142  A    between atoms: _366  and  _369
REMARK  143  A    between atoms: _369  and  _370
REMARK  144  A    between atoms: _370  and  _371
REMARK  145  A    between atoms: _373  and  _375
REMARK  146  A    between atoms: _375  and  _376
REMARK  147  A    between atoms: _375  and  _378
REMARK  148  A    between atoms: _378  and  _379
REMARK  149  A    between atoms: _379  and  _380
REMARK  150  A    between atoms: _380  and  _381
REMARK  151  A    between atoms: _381  and  _382
REMARK  152  A    between atoms: _386  and  _388
REMARK  153  A    between atoms: _388  and  _389
REMARK  154  A    between atoms: _388  and  _391
REMARK  155  A    between atoms: _391  and  _392
REMARK  156  A    between atoms: _397  and  _398
REMARK  157  A    between atoms: _400  and  _402
REMARK  158  A    between atoms: _402  and  _403
REMARK  159  A    between atoms: _402  and  _405
REMARK  160  A    between atoms: _405  and  _406
REMARK  161  A    between atoms: _408  and  _410
REMARK  162  A    between atoms: _410  and  _411
REMARK  163  A    between atoms: _414  and  _416
REMARK  164  A    between atoms: _416  and  _417
REMARK  165  A    between atoms: _416  and  _419
REMARK  166  A    between atoms: _419  and  _420
REMARK  167  A    between atoms: _423  and  _425
REMARK  168  A    between atoms: _425  and  _426
REMARK  169  A    between atoms: _425  and  _428
REMARK  170  A    between atoms: _428  and  _429
REMARK  171  A    between atoms: _439  and  _441
REMARK  172  A    between atoms: _441  and  _442
REMARK  173  A    between atoms: _441  and  _444
REMARK  174  A    between atoms: _444  and  _445
REMARK  175  A    between atoms: _445  and  _446
REMARK  176  A    between atoms: _451  and  _453
REMARK  177  A    between atoms: _453  and  _454
REMARK  178  A    between atoms: _453  and  _456
REMARK  179  A    between atoms: _459  and  _461
REMARK  180  A    between atoms: _461  and  _462
REMARK  181  A    between atoms: _461  and  _464
REMARK  182  A    between atoms: _464  and  _465
REMARK  183  A    between atoms: _468  and  _470
REMARK  184  A    between atoms: _470  and  _471
REMARK  185  A    between atoms: _474  and  _476
REMARK  186  A    between atoms: _476  and  _477
REMARK  187  A    between atoms: _476  and  _479
REMARK  188  A    between atoms: _482  and  _484
REMARK  189  A    between atoms: _484  and  _485
REMARK  190  A    between atoms: _484  and  _487
REMARK  191  A    between atoms: _487  and  _488
REMARK  192  A    between atoms: _494  and  _496
REMARK  193  A    between atoms: _496  and  _497
REMARK  194  A    between atoms: _496  and  _499
REMARK  195  A    between atoms: _499  and  _500
REMARK  196  A    between atoms: _502  and  _504
REMARK  197  A    between atoms: _504  and  _505
REMARK  198  A    between atoms: _504  and  _507
REMARK  199  A    between atoms: _507  and  _508
REMARK  200  A    between atoms: _513  and  _515
REMARK  201  A    between atoms: _515  and  _516
REMARK  202  A    between atoms: _515  and  _518
REMARK  203  A    between atoms: _518  and  _519
REMARK  204  A    between atoms: _529  and  _531
REMARK  205  A    between atoms: _531  and  _532
REMARK  206  A    between atoms: _531  and  _534
REMARK  207  A    between atoms: _534  and  _535
REMARK  208  A    between atoms: _538  and  _540
REMARK  209  A    between atoms: _540  and  _541
REMARK  210  A    between atoms: _540  and  _543
REMARK  211  A    between atoms: _543  and  _544
REMARK  212  A    between atoms: _549  and  _550
REMARK  213  A    between atoms: _552  and  _554
REMARK  214  A    between atoms: _554  and  _555
REMARK  215  A    between atoms: _554  and  _557
REMARK  216  A    between atoms: _557  and  _558
REMARK  217  A    between atoms: _561  and  _563
REMARK  218  A    between atoms: _563  and  _564
REMARK  219  A    between atoms: _563  and  _566
REMARK  220  A    between atoms: _566  and  _567
REMARK  221  A    between atoms: _567  and  _568
REMARK  222  A    between atoms: _571  and  _573
REMARK  223  A    between atoms: _573  and  _574
REMARK  224  A    between atoms: _573  and  _576
REMARK  225  A    between atoms: _576  and  _577
REMARK  226  A    between atoms: _582  and  _584
REMARK  227  A    between atoms: _584  and  _585
REMARK  228  A    between atoms: _587  and  _589
REMARK  229  A    between atoms: _589  and  _590
REMARK  230  A    between atoms: _589  and  _592
REMARK  231  A    between atoms: _592  and  _593
REMARK  232  A    between atoms: _593  and  _594
REMARK  233  A    between atoms: _596  and  _598
REMARK  234  A    between atoms: _598  and  _599
REMARK  235  A    between atoms: _598  and  _601
REMARK  236  A    between atoms: _601  and  _602
REMARK  237  A    between atoms: _605  and  _607
REMARK  238  A    between atoms: _607  and  _608
REMARK  239  A    between atoms: _607  and  _610
REMARK  240  A    between atoms: _610  and  _611
REMARK  241  A    between atoms: _621  and  _623
REMARK  242  A    between atoms: _623  and  _624
REMARK  243  A    between atoms: _623  and  _626
REMARK  244  A    between atoms: _626  and  _627
REMARK  245  A    between atoms: _629  and  _631
REMARK  246  A    between atoms: _631  and  _632
REMARK  247  A    between atoms: _631  and  _634
REMARK  248  A    between atoms: _634  and  _635
REMARK  249  A    between atoms: _640  and  _642
REMARK  250  A    between atoms: _642  and  _643
REMARK  251  A    between atoms: _642  and  _645
REMARK  252  A    between atoms: _645  and  _646
REMARK  253  A    between atoms: _652  and  _654
REMARK  254  A    between atoms: _654  and  _655
REMARK  255  A    between atoms: _654  and  _657
REMARK  256  A    between atoms: _657  and  _658
REMARK  257  A    between atoms: _658  and  _659
REMARK  258  A    between atoms: _662  and  _664
REMARK  259  A    between atoms: _664  and  _665
REMARK  260  A    between atoms: _664  and  _667
REMARK  261  A    between atoms: _667  and  _668
REMARK  262  A    between atoms: _678  and  _680
REMARK  263  A    between atoms: _680  and  _681
REMARK  264  A    between atoms: _680  and  _683
REMARK  265  A    between atoms: _683  and  _684
REMARK  266  A    between atoms: _687  and  _689
REMARK  267  A    between atoms: _689  and  _690
REMARK  268  A    between atoms: _689  and  _692
REMARK  269  A    between atoms: _692  and  _693
REMARK  270  A    between atoms: _695  and  _697
REMARK  271  A    between atoms: _697  and  _698
REMARK  272  A    between atoms: _697  and  _700
REMARK  273  A    between atoms: _700  and  _701
REMARK  274  A    between atoms: _703  and  _705
REMARK  275  A    between atoms: _705  and  _706
REMARK  276  A    between atoms: _705  and  _708
REMARK  277  A    between atoms: _708  and  _709
REMARK                            x       y       z     vdW  Elec       q    Type
REMARK                         _______ _______ _______ _____ _____    ______ ____
ROOT
ATOM      1  NE  ARG A   1      13.657   1.095  32.020  0.00  0.00    -0.265 N 
ATOM      2  CZ  ARG A   1      12.641   0.912  32.850  0.00  0.00    +0.342 C 
ATOM      3  NH2 ARG A   1      12.006   1.940  33.385  0.00  0.00    -0.292 N 
ATOM      4 HH21 ARG A   1      11.210   1.779  34.035  0.00  0.00    +0.255 HD
ATOM      5 HH22 ARG A   1      12.302   2.910  33.156  0.00  0.00    +0.255 HD
ATOM      6  NH1 ARG A   1      12.271  -0.324  33.160  0.00  0.00    -0.292 N 
ATOM      7 HH11 ARG A   1      11.475  -0.481  33.810  0.00  0.00    +0.255 HD
ATOM      8 HH12 ARG A   1      12.777  -1.136  32.752  0.00  0.00    +0.255 HD
ATOM      9  HE  ARG A   1      14.168   0.247  31.702  0.00  0.00    +0.259 HD
ENDROOT
BRANCH   1  10
ATOM     10  CD  ARG A   1      14.126   2.389  31.510  0.00  0.00    +0.174 C 
BRANCH  10  11
ATOM     11  CG  ARG A   1      14.203   2.251  29.983  0.00  0.00    +0.045 C 
BRANCH  11  12
ATOM     12  CB  ARG A   1      14.363   3.556  29.228  0.00  0.00    +0.029 C 
BRANCH  12  13
ATOM     13  CA  ARG A   1      14.472   3.372  27.702  0.00  0.00    +0.133 C 
BRANCH  13  14
ATOM     14  N   ARG A   1      14.558   4.653  27.013  0.00  0.00    -0.239 NA
ATOM     15  H   ARG A   1      14.010   5.461  27.370  0.00  0.00    +0.142 HD
ENDBRANCH  13  14
BRANCH  13  16
ATOM     16  C   ARG A   1      13.265   2.613  27.157  0.00  0.00    +0.224 C 
ATOM     17  O   ARG A   1      12.144   3.099  27.201  0.00  0.00    -0.287 OA
ENDBRANCH  13  16
ENDBRANCH  12  13
ENDBRANCH  11  12
ENDBRANCH  10  11
ENDBRANCH   1  10
TORSDOF 6
REMARK  Name = ../refined-set-2016/4qll/4qll_pocket.pdb
REMARK  277 active torsions:
REMARK  status: ('A' for Active; 'I' for Inactive)
REMARK    1  A    between atoms: _1  and  _3
REMARK    2  A    between atoms: _3  and  _4
REMARK    3  A    between atoms: _3  and  _6
REMARK    4  A    between atoms: _9  and  _11
REMARK    5  A    between atoms: _11  and  _12
REMARK    6  A    between atoms: _11  and  _14
REMARK    7  A    between atoms: _14  and  _15
REMARK    8  A    between atoms: _18  and  _20
REMARK    9  A    between atoms: _20  and  _21
REMARK   10  A    between atoms: _20  and  _23
REMARK   11  A    between atoms: _23  and  _24
REMARK   12  A    between atoms: _26  and  _28
REMARK   13  A    between atoms: _28  and  _29
REMARK   14  A    between atoms: _28  and  _31
REMARK   15  A    between atoms: _31  and  _32
REMARK   16  A    between atoms: _32  and  _33
REMARK   17  A    between atoms: _38  and  _40
REMARK   18  A    between atoms: _40  and  _41
REMARK   19  A    between atoms: _40  and  _43
REMARK   20  A    between atoms: _43  and  _44
REMARK   21  A    between atoms: _44  and  _45
REMARK   22  A    between atoms: _45  and  _46
REMARK   23  A    between atoms: _55  and  _57
REMARK   24  A    between atoms: _57  and  _58
REMARK   25  A    between atoms: _57  and  _60
REMARK   26  A    between atoms: _60  and  _61
REMARK   27  A    between atoms: _66  and  _68
REMARK   28  A    between atoms: _68  and  _69
REMARK   29  A    between atoms: _68  and  _71
REMARK   30  A    between atoms: _71  and  _72
REMARK   31  A    between atoms: _77  and  _78
REMARK   32  A    between atoms: _80  and  _82
REMARK   33  A    between atoms: _82  and  _83
REMARK   34  A    between atoms: _82  and  _85
REMARK   35  A    between atoms: _85  and  _86
REMARK   36  A    between atoms: _91  and  _93
REMARK   37  A    between atoms: _93  and  _94
REMARK   38  A    between atoms: _93  and  _96
REMARK   39  A    between atoms: _96  and  _97
REMARK   40  A    between atoms: _97  and  _98
REMARK   41  A    between atoms: _103  and  _105
REMARK   42  A    between atoms: _105  and  _106
REMARK   43  A    between atoms: _105  and  _108
REMARK   44  A    between atoms: _108  and  _109
REMARK   45  A    between atoms: _109  and  _110
REMARK   46  A    between atoms: _110  and  _111
REMARK   47  A    between atoms: _120  and  _122
REMARK   48  A    between atoms: _122  and  _123
REMARK   49  A    between atoms: _122  and  _125
REMARK   50  A    between atoms: _125  and  _126
REMARK   51  A    between atoms: _129  and  _131
REMARK   52  A    between atoms: _131  and  _132
REMARK   53  A    between atoms: _131  and  _134
REMARK   54  A    between atoms: _134  and  _135
REMARK   55  A    between atoms: _138  and  _140
REMARK   56  A    between atoms: _140  and  _141
REMARK   57  A    between atoms: _140  and  _143
REMARK   58  A    between atoms: _143  and  _144
REMARK   59  A    between atoms: _147  and  _149
REMARK   60  A    between atoms: _149  and  _150
REMARK   61  A    between atoms: _149  and  _152
REMARK   62  A    between atoms: _152  and  _153
REMARK   63  A    between atoms: _156  and  _158
REMARK   64  A    between atoms: _158  and  _159
REMARK   65  A    between atoms: _162  and  _164
REMARK   66  A    between atoms: _164  and  _165
REMARK   67  A    between atoms: _164  and  _167
REMARK   68  A    between atoms: _167  and  _168
REMARK   69  A    between atoms: _171  and  _173
REMARK   70  A    between atoms: _173  and  _174
REMARK   71  A    between atoms: _173  and  _176
REMARK   72  A    between atoms: _176  and  _177
REMARK   73  A    between atoms: _182  and  _184
REMARK   74  A    between atoms: _184  and  _185
REMARK   75  A    between atoms: _184  and  _187
REMARK   76  A    between atoms: _190  and  _192
REMARK   77  A    between atoms: _192  and  _193
REMARK   78  A    between atoms: _192  and  _195
REMARK   79  A    between atoms: _195  and  _196
REMARK   80  A    between atoms: _199  and  _201
REMARK   81  A    between atoms: _201  and  _202
REMARK   82  A    between atoms: _201  and  _204
REMARK   83  A    between atoms: _204  and  _205
REMARK   84  A    between atoms: _208  and  _210
REMARK   85  A    between atoms: _210  and  _211
REMARK   86  A    between atoms: _210  and  _213
REMARK   87  A    between atoms: _213  and  _214
REMARK   88  A    between atoms: _220  and  _222
REMARK   89  A    between atoms: _222  and  _223
REMARK   90  A    between atoms: _222  and  _225
REMARK   91  A    between atoms: _225  and  _226
REMARK   92  A    between atoms: _231  and  _233
REMARK   93  A    between atoms: _233  and  _234
REMARK   94  A    between atoms: _233  and  _236
REMARK   95  A    between atoms: _236  and  _237
REMARK   96  A    between atoms: _247  and  _249
REMARK   97  A    between atoms: _249  and  _250
REMARK   98  A    between atoms: _249  and  _252
REMARK   99  A    between atoms: _252  and  _253
REMARK  100  A    between atoms: _258  and  _259
REMARK  101  A    between atoms: _261  and  _263
REMARK  102  A    between atoms: _263  and  _264
REMARK  103  A    between atoms: _267  and  _269
REMARK  104  A    between atoms: _269  and  _270
REMARK  105  A    between atoms: _269  and  _272
REMARK  106  A    between atoms: _272  and  _273
REMARK  107  A    between atoms: _279  and  _281
REMARK  108  A    between atoms: _281  and  _282
REMARK  109  A    between atoms: _281  and  _284
REMARK  110  A    between atoms: _284  and  _285
REMARK  111  A    between atoms: _290  and  _292
REMARK  112  A    between atoms: _292  and  _293
REMARK  113  A    between atoms: _292  and  _295
REMARK  114  A    between atoms: _295  and  _296
REMARK  115  A    between atoms: _301  and  _303
REMARK  116  A    between atoms: _303  and  _304
REMARK  117  A    between atoms: _303  and  _306
REMARK  118  A    between atoms: _306  and  _307
REMARK  119  A    between atoms: _307  and  _308
REMARK  120  A    between atoms: _313  and  _315
REMARK  121  A    between atoms: _315  and  _316
REMARK  122  A    between atoms: _315  and  _318
REMARK  123  A    between atoms: _318  and  _319
REMARK  124  A    between atoms: _324  and  _325
REMARK  125  A    between atoms: _327  and  _329
REMARK  126  A    between atoms: _329  and  _330
REMARK  127  A    between atoms: _329  and  _332
REMARK  128  A    between atoms: _332  and  _333
REMARK  129  A    between atoms: _336  and  _338
REMARK  130  A    between atoms: _338  and  _339
REMARK  131  A    between atoms: _342  and  _344
REMARK  132  A    between atoms: _344  and  _345
REMARK  133  A    between atoms: _344  and  _347
REMARK  134  A    between atoms: _347  and  _348
REMARK  135  A    between atoms: _350  and  _352
REMARK  136  A    between atoms: _352  and  _353
REMARK  137  A    between atoms: _352  and  _355
REMARK  138  A    between atoms: _355  and  _356
REMARK  139  A    between atoms: _361  and  _362
REMARK  140  A    between atoms: _364  and  _366
REMARK  141  A    between atoms: _366  and  _367
REMARK  142  A    between atoms: _366  and  _369
REMARK  143  A    between atoms: _369  and  _370
REMARK  144  A    between atoms: _370  and  _371
REMARK  145  A    between atoms: _373  and  _375
REMARK  146  A    between atoms: _375  and  _376
REMARK  147  A    between atoms: _375  and  _378
REMARK  148  A    between atoms: _378  and  _379
REMARK  149  A    between atoms: _379  and  _380
REMARK  150  A    between atoms: _380  and  _381
REMARK  151  A    between atoms: _381  and  _382
REMARK  152  A    between atoms: _386  and  _388
REMARK  153  A    between atoms: _388  and  _389
REMARK  154  A    between atoms: _388  and  _391
REMARK  155  A    between atoms: _391  and  _392
REMARK  156  A    between atoms: _397  and  _398
REMARK  157  A    between atoms: _400  and  _402
REMARK  158  A    between atoms: _402  and  _403
REMARK  159  A    between atoms: _402  and  _405
REMARK  160  A    between atoms: _405  and  _406
REMARK  161  A    between atoms: _408  and  _410
REMARK  162  A    between atoms: _410  and  _411
REMARK  163  A    between atoms: _414  and  _416
REMARK  164  A    between atoms: _416  and  _417
REMARK  165  A    between atoms: _416  and  _419
REMARK  166  A    between atoms: _419  and  _420
REMARK  167  A    between atoms: _423  and  _425
REMARK  168  A    between atoms: _425  and  _426
REMARK  169  A    between atoms: _425  and  _428
REMARK  170  A    between atoms: _428  and  _429
REMARK  171  A    between atoms: _439  and  _441
REMARK  172  A    between atoms: _441  and  _442
REMARK  173  A    between atoms: _441  and  _444
REMARK  174  A    between atoms: _444  and  _445
REMARK  175  A    between atoms: _445  and  _446
REMARK  176  A    between atoms: _451  and  _453
REMARK  177  A    between atoms: _453  and  _454
REMARK  178  A    between atoms: _453  and  _456
REMARK  179  A    between atoms: _459  and  _461
REMARK  180  A    between atoms: _461  and  _462
REMARK  181  A    between atoms: _461  and  _464
REMARK  182  A    between atoms: _464  and  _465
REMARK  183  A    between atoms: _468  and  _470
REMARK  184  A    between atoms: _470  and  _471
REMARK  185  A    between atoms: _474  and  _476
REMARK  186  A    between atoms: _476  and  _477
REMARK  187  A    between atoms: _476  and  _479
REMARK  188  A    between atoms: _482  and  _484
REMARK  189  A    between atoms: _484  and  _485
REMARK  190  A    between atoms: _484  and  _487
REMARK  191  A    between atoms: _487  and  _488
REMARK  192  A    between atoms: _494  and  _496
REMARK  193  A    between atoms: _496  and  _497
REMARK  194  A    between atoms: _496  and  _499
REMARK  195  A    between atoms: _499  and  _500
REMARK  196  A    between atoms: _502  and  _504
REMARK  197  A    between atoms: _504  and  _505
REMARK  198  A    between atoms: _504  and  _507
REMARK  199  A    between atoms: _507  and  _508
REMARK  200  A    between atoms: _513  and  _515
REMARK  201  A    between atoms: _515  and  _516
REMARK  202  A    between atoms: _515  and  _518
REMARK  203  A    between atoms: _518  and  _519
REMARK  204  A    between atoms: _529  and  _531
REMARK  205  A    between atoms: _531  and  _532
REMARK  206  A    between atoms: _531  and  _534
REMARK  207  A    between atoms: _534  and  _535
REMARK  208  A    between atoms: _538  and  _540
REMARK  209  A    between atoms: _540  and  _541
REMARK  210  A    between atoms: _540  and  _543
REMARK  211  A    between atoms: _543  and  _544
REMARK  212  A    between atoms: _549  and  _550
REMARK  213  A    between atoms: _552  and  _554
REMARK  214  A    between atoms: _554  and  _555
REMARK  215  A    between atoms: _554  and  _557
REMARK  216  A    between atoms: _557  and  _558
REMARK  217  A    between atoms: _561  and  _563
REMARK  218  A    between atoms: _563  and  _564
REMARK  219  A    between atoms: _563  and  _566
REMARK  220  A    between atoms: _566  and  _567
REMARK  221  A    between atoms: _567  and  _568
REMARK  222  A    between atoms: _571  and  _573
REMARK  223  A    between atoms: _573  and  _574
REMARK  224  A    between atoms: _573  and  _576
REMARK  225  A    between atoms: _576  and  _577
REMARK  226  A    between atoms: _582  and  _584
REMARK  227  A    between atoms: _584  and  _585
REMARK  228  A    between atoms: _587  and  _589
REMARK  229  A    between atoms: _589  and  _590
REMARK  230  A    between atoms: _589  and  _592
REMARK  231  A    between atoms: _592  and  _593
REMARK  232  A    between atoms: _593  and  _594
REMARK  233  A    between atoms: _596  and  _598
REMARK  234  A    between atoms: _598  and  _599
REMARK  235  A    between atoms: _598  and  _601
REMARK  236  A    between atoms: _601  and  _602
REMARK  237  A    between atoms: _605  and  _607
REMARK  238  A    between atoms: _607  and  _608
REMARK  239  A    between atoms: _607  and  _610
REMARK  240  A    between atoms: _610  and  _611
REMARK  241  A    between atoms: _621  and  _623
REMARK  242  A    between atoms: _623  and  _624
REMARK  243  A    between atoms: _623  and  _626
REMARK  244  A    between atoms: _626  and  _627
REMARK  245  A    between atoms: _629  and  _631
REMARK  246  A    between atoms: _631  and  _632
REMARK  247  A    between atoms: _631  and  _634
REMARK  248  A    between atoms: _634  and  _635
REMARK  249  A    between atoms: _640  and  _642
REMARK  250  A    between atoms: _642  and  _643
REMARK  251  A    between atoms: _642  and  _645
REMARK  252  A    between atoms: _645  and  _646
REMARK  253  A    between atoms: _652  and  _654
REMARK  254  A    between atoms: _654  and  _655
REMARK  255  A    between atoms: _654  and  _657
REMARK  256  A    between atoms: _657  and  _658
REMARK  257  A    between atoms: _658  and  _659
REMARK  258  A    between atoms: _662  and  _664
REMARK  259  A    between atoms: _664  and  _665
REMARK  260  A    between atoms: _664  and  _667
REMARK  261  A    between atoms: _667  and  _668
REMARK  262  A    between atoms: _678  and  _680
REMARK  263  A    between atoms: _680  and  _681
REMARK  264  A    between atoms: _680  and  _683
REMARK  265  A    between atoms: _683  and  _684
REMARK  266  A    between atoms: _687  and  _689
REMARK  267  A    between atoms: _689  and  _690
REMARK  268  A    between atoms: _689  and  _692
REMARK  269  A    between atoms: _692  and  _693
REMARK  270  A    between atoms: _695  and  _697
REMARK  271  A    between atoms: _697  and  _698
REMARK  272  A    between atoms: _697  and  _700
REMARK  273  A    between atoms: _700  and  _701
REMARK  274  A    between atoms: _703  and  _705
REMARK  275  A    between atoms: _705  and  _706
REMARK  276  A    between atoms: _705  and  _708
REMARK  277  A    between atoms: _708  and  _709
REMARK                            x       y       z     vdW  Elec       q    Type
REMARK                         _______ _______ _______ _____ _____    ______ ____
ROOT
ATOM      1  C   HIS A   1       7.702  -6.529  31.891  0.00  0.00    +0.239 C 
ATOM      2  N   TYR A   2       7.656  -7.523  32.787  0.00  0.00    -0.298 N 
ATOM      3  H   TYR A   2       8.555  -7.794  33.234  0.00  0.00    +0.150 HD
ATOM      4  O   HIS A   1       6.749  -6.184  31.185  0.00  0.00    -0.274 OA
ENDROOT
BRANCH   1   5
ATOM      5  CA  HIS A   1       9.075  -5.856  31.752  0.00  0.00    +0.151 C 
BRANCH   5   6
ATOM      6  N   HIS A   1      10.008  -6.794  31.135  0.00  0.00    -0.238 NA
ATOM      7  H   HIS A   1       9.667  -7.426  30.383  0.00  0.00    +0.142 HD
ENDBRANCH   5   6
BRANCH   5   8
ATOM      8  CB  HIS A   1       9.026  -4.567  30.924  0.00  0.00    +0.074 C 
BRANCH   8   9
ATOM      9  CG  HIS A   1       8.480  -3.387  31.653  0.00  0.00    +0.082 A 
ATOM     10  CD2 HIS A   1       7.297  -3.194  32.285  0.00  0.00    +0.115 A 
ATOM     11  NE2 HIS A   1       7.296  -1.905  32.756  0.00  0.00    -0.221 NA
ATOM     12  CE1 HIS A   1       8.431  -1.324  32.417  0.00  0.00    +0.199 A 
ATOM     13  ND1 HIS A   1       9.166  -2.199  31.755  0.00  0.00    -0.227 NA
ENDBRANCH   8   9
ENDBRANCH   5   8
ENDBRANCH   1   5
BRANCH   2  14
ATOM     14  CA  TYR A   2       6.440  -8.281  33.208  0.00  0.00    +0.141 C 
BRANCH  14  15
ATOM     15  C   TYR A   2       5.984  -9.373  32.236  0.00  0.00    +0.227 C 
ATOM     16  O   TYR A   2       5.075 -10.152  32.550  0.00  0.00    -0.286 OA
ENDBRANCH  14  15
BRANCH  14  17
ATOM     17  CB  TYR A   2       5.225  -7.374  33.436  0.00  0.00    +0.054 C 
BRANCH  17  18
ATOM     18  CG  TYR A   2       5.341  -6.286  34.486  0.00  0.00    -0.020 A 
ATOM     19  CD2 TYR A   2       6.357  -6.275  35.442  0.00  0.00    -0.001 A 
ATOM     20  CE2 TYR A   2       6.417  -5.274  36.409  0.00  0.00    +0.036 A 
ATOM     21  CZ  TYR A   2       5.461  -4.273  36.414  0.00  0.00    +0.134 A 
ATOM     22  CE1 TYR A   2       4.461  -4.265  35.476  0.00  0.00    +0.036 A 
ATOM     23  CD1 TYR A   2       4.401  -5.268  34.525  0.00  0.00    -0.001 A 
BRANCH  21  24
ATOM     24  OH  TYR A   2       5.490  -3.263  37.339  0.00  0.00    -0.506 OA
ATOM     25  HH  TYR A   2       4.729  -2.650  37.180  0.00  0.00    +0.292 HD
ENDBRANCH  21  24
ENDBRANCH  17  18
ENDBRANCH  14  17
ENDBRANCH   2  14
TORSDOF 9
REMARK  Name = ../refined-set-2016/4qll/4qll_pocket.pdb
REMARK  277 active torsions:
REMARK  status: ('A' for Active; 'I' for Inactive)
REMARK    1  A    between atoms: _1  and  _3
REMARK    2  A    between atoms: _3  and  _4
REMARK    3  A    between atoms: _3  and  _6
REMARK    4  A    between atoms: _9  and  _11
REMARK    5  A    between atoms: _11  and  _12
REMARK    6  A    between atoms: _11  and  _14
REMARK    7  A    between atoms: _14  and  _15
REMARK    8  A    between atoms: _18  and  _20
REMARK    9  A    between atoms: _20  and  _21
REMARK   10  A    between atoms: _20  and  _23
REMARK   11  A    between atoms: _23  and  _24
REMARK   12  A    between atoms: _26  and  _28
REMARK   13  A    between atoms: _28  and  _29
REMARK   14  A    between atoms: _28  and  _31
REMARK   15  A    between atoms: _31  and  _32
REMARK   16  A    between atoms: _32  and  _33
REMARK   17  A    between atoms: _38  and  _40
REMARK   18  A    between atoms: _40  and  _41
REMARK   19  A    between atoms: _40  and  _43
REMARK   20  A    between atoms: _43  and  _44
REMARK   21  A    between atoms: _44  and  _45
REMARK   22  A    between atoms: _45  and  _46
REMARK   23  A    between atoms: _55  and  _57
REMARK   24  A    between atoms: _57  and  _58
REMARK   25  A    between atoms: _57  and  _60
REMARK   26  A    between atoms: _60  and  _61
REMARK   27  A    between atoms: _66  and  _68
REMARK   28  A    between atoms: _68  and  _69
REMARK   29  A    between atoms: _68  and  _71
REMARK   30  A    between atoms: _71  and  _72
REMARK   31  A    between atoms: _77  and  _78
REMARK   32  A    between atoms: _80  and  _82
REMARK   33  A    between atoms: _82  and  _83
REMARK   34  A    between atoms: _82  and  _85
REMARK   35  A    between atoms: _85  and  _86
REMARK   36  A    between atoms: _91  and  _93
REMARK   37  A    between atoms: _93  and  _94
REMARK   38  A    between atoms: _93  and  _96
REMARK   39  A    between atoms: _96  and  _97
REMARK   40  A    between atoms: _97  and  _98
REMARK   41  A    between atoms: _103  and  _105
REMARK   42  A    between atoms: _105  and  _106
REMARK   43  A    between atoms: _105  and  _108
REMARK   44  A    between atoms: _108  and  _109
REMARK   45  A    between atoms: _109  and  _110
REMARK   46  A    between atoms: _110  and  _111
REMARK   47  A    between atoms: _120  and  _122
REMARK   48  A    between atoms: _122  and  _123
REMARK   49  A    between atoms: _122  and  _125
REMARK   50  A    between atoms: _125  and  _126
REMARK   51  A    between atoms: _129  and  _131
REMARK   52  A    between atoms: _131  and  _132
REMARK   53  A    between atoms: _131  and  _134
REMARK   54  A    between atoms: _134  and  _135
REMARK   55  A    between atoms: _138  and  _140
REMARK   56  A    between atoms: _140  and  _141
REMARK   57  A    between atoms: _140  and  _143
REMARK   58  A    between atoms: _143  and  _144
REMARK   59  A    between atoms: _147  and  _149
REMARK   60  A    between atoms: _149  and  _150
REMARK   61  A    between atoms: _149  and  _152
REMARK   62  A    between atoms: _152  and  _153
REMARK   63  A    between atoms: _156  and  _158
REMARK   64  A    between atoms: _158  and  _159
REMARK   65  A    between atoms: _162  and  _164
REMARK   66  A    between atoms: _164  and  _165
REMARK   67  A    between atoms: _164  and  _167
REMARK   68  A    between atoms: _167  and  _168
REMARK   69  A    between atoms: _171  and  _173
REMARK   70  A    between atoms: _173  and  _174
REMARK   71  A    between atoms: _173  and  _176
REMARK   72  A    between atoms: _176  and  _177
REMARK   73  A    between atoms: _182  and  _184
REMARK   74  A    between atoms: _184  and  _185
REMARK   75  A    between atoms: _184  and  _187
REMARK   76  A    between atoms: _190  and  _192
REMARK   77  A    between atoms: _192  and  _193
REMARK   78  A    between atoms: _192  and  _195
REMARK   79  A    between atoms: _195  and  _196
REMARK   80  A    between atoms: _199  and  _201
REMARK   81  A    between atoms: _201  and  _202
REMARK   82  A    between atoms: _201  and  _204
REMARK   83  A    between atoms: _204  and  _205
REMARK   84  A    between atoms: _208  and  _210
REMARK   85  A    between atoms: _210  and  _211
REMARK   86  A    between atoms: _210  and  _213
REMARK   87  A    between atoms: _213  and  _214
REMARK   88  A    between atoms: _220  and  _222
REMARK   89  A    between atoms: _222  and  _223
REMARK   90  A    between atoms: _222  and  _225
REMARK   91  A    between atoms: _225  and  _226
REMARK   92  A    between atoms: _231  and  _233
REMARK   93  A    between atoms: _233  and  _234
REMARK   94  A    between atoms: _233  and  _236
REMARK   95  A    between atoms: _236  and  _237
REMARK   96  A    between atoms: _247  and  _249
REMARK   97  A    between atoms: _249  and  _250
REMARK   98  A    between atoms: _249  and  _252
REMARK   99  A    between atoms: _252  and  _253
REMARK  100  A    between atoms: _258  and  _259
REMARK  101  A    between atoms: _261  and  _263
REMARK  102  A    between atoms: _263  and  _264
REMARK  103  A    between atoms: _267  and  _269
REMARK  104  A    between atoms: _269  and  _270
REMARK  105  A    between atoms: _269  and  _272
REMARK  106  A    between atoms: _272  and  _273
REMARK  107  A    between atoms: _279  and  _281
REMARK  108  A    between atoms: _281  and  _282
REMARK  109  A    between atoms: _281  and  _284
REMARK  110  A    between atoms: _284  and  _285
REMARK  111  A    between atoms: _290  and  _292
REMARK  112  A    between atoms: _292  and  _293
REMARK  113  A    between atoms: _292  and  _295
REMARK  114  A    between atoms: _295  and  _296
REMARK  115  A    between atoms: _301  and  _303
REMARK  116  A    between atoms: _303  and  _304
REMARK  117  A    between atoms: _303  and  _306
REMARK  118  A    between atoms: _306  and  _307
REMARK  119  A    between atoms: _307  and  _308
REMARK  120  A    between atoms: _313  and  _315
REMARK  121  A    between atoms: _315  and  _316
REMARK  122  A    between atoms: _315  and  _318
REMARK  123  A    between atoms: _318  and  _319
REMARK  124  A    between atoms: _324  and  _325
REMARK  125  A    between atoms: _327  and  _329
REMARK  126  A    between atoms: _329  and  _330
REMARK  127  A    between atoms: _329  and  _332
REMARK  128  A    between atoms: _332  and  _333
REMARK  129  A    between atoms: _336  and  _338
REMARK  130  A    between atoms: _338  and  _339
REMARK  131  A    between atoms: _342  and  _344
REMARK  132  A    between atoms: _344  and  _345
REMARK  133  A    between atoms: _344  and  _347
REMARK  134  A    between atoms: _347  and  _348
REMARK  135  A    between atoms: _350  and  _352
REMARK  136  A    between atoms: _352  and  _353
REMARK  137  A    between atoms: _352  and  _355
REMARK  138  A    between atoms: _355  and  _356
REMARK  139  A    between atoms: _361  and  _362
REMARK  140  A    between atoms: _364  and  _366
REMARK  141  A    between atoms: _366  and  _367
REMARK  142  A    between atoms: _366  and  _369
REMARK  143  A    between atoms: _369  and  _370
REMARK  144  A    between atoms: _370  and  _371
REMARK  145  A    between atoms: _373  and  _375
REMARK  146  A    between atoms: _375  and  _376
REMARK  147  A    between atoms: _375  and  _378
REMARK  148  A    between atoms: _378  and  _379
REMARK  149  A    between atoms: _379  and  _380
REMARK  150  A    between atoms: _380  and  _381
REMARK  151  A    between atoms: _381  and  _382
REMARK  152  A    between atoms: _386  and  _388
REMARK  153  A    between atoms: _388  and  _389
REMARK  154  A    between atoms: _388  and  _391
REMARK  155  A    between atoms: _391  and  _392
REMARK  156  A    between atoms: _397  and  _398
REMARK  157  A    between atoms: _400  and  _402
REMARK  158  A    between atoms: _402  and  _403
REMARK  159  A    between atoms: _402  and  _405
REMARK  160  A    between atoms: _405  and  _406
REMARK  161  A    between atoms: _408  and  _410
REMARK  162  A    between atoms: _410  and  _411
REMARK  163  A    between atoms: _414  and  _416
REMARK  164  A    between atoms: _416  and  _417
REMARK  165  A    between atoms: _416  and  _419
REMARK  166  A    between atoms: _419  and  _420
REMARK  167  A    between atoms: _423  and  _425
REMARK  168  A    between atoms: _425  and  _426
REMARK  169  A    between atoms: _425  and  _428
REMARK  170  A    between atoms: _428  and  _429
REMARK  171  A    between atoms: _439  and  _441
REMARK  172  A    between atoms: _441  and  _442
REMARK  173  A    between atoms: _441  and  _444
REMARK  174  A    between atoms: _444  and  _445
REMARK  175  A    between atoms: _445  and  _446
REMARK  176  A    between atoms: _451  and  _453
REMARK  177  A    between atoms: _453  and  _454
REMARK  178  A    between atoms: _453  and  _456
REMARK  179  A    between atoms: _459  and  _461
REMARK  180  A    between atoms: _461  and  _462
REMARK  181  A    between atoms: _461  and  _464
REMARK  182  A    between atoms: _464  and  _465
REMARK  183  A    between atoms: _468  and  _470
REMARK  184  A    between atoms: _470  and  _471
REMARK  185  A    between atoms: _474  and  _476
REMARK  186  A    between atoms: _476  and  _477
REMARK  187  A    between atoms: _476  and  _479
REMARK  188  A    between atoms: _482  and  _484
REMARK  189  A    between atoms: _484  and  _485
REMARK  190  A    between atoms: _484  and  _487
REMARK  191  A    between atoms: _487  and  _488
REMARK  192  A    between atoms: _494  and  _496
REMARK  193  A    between atoms: _496  and  _497
REMARK  194  A    between atoms: _496  and  _499
REMARK  195  A    between atoms: _499  and  _500
REMARK  196  A    between atoms: _502  and  _504
REMARK  197  A    between atoms: _504  and  _505
REMARK  198  A    between atoms: _504  and  _507
REMARK  199  A    between atoms: _507  and  _508
REMARK  200  A    between atoms: _513  and  _515
REMARK  201  A    between atoms: _515  and  _516
REMARK  202  A    between atoms: _515  and  _518
REMARK  203  A    between atoms: _518  and  _519
REMARK  204  A    between atoms: _529  and  _531
REMARK  205  A    between atoms: _531  and  _532
REMARK  206  A    between atoms: _531  and  _534
REMARK  207  A    between atoms: _534  and  _535
REMARK  208  A    between atoms: _538  and  _540
REMARK  209  A    between atoms: _540  and  _541
REMARK  210  A    between atoms: _540  and  _543
REMARK  211  A    between atoms: _543  and  _544
REMARK  212  A    between atoms: _549  and  _550
REMARK  213  A    between atoms: _552  and  _554
REMARK  214  A    between atoms: _554  and  _555
REMARK  215  A    between atoms: _554  and  _557
REMARK  216  A    between atoms: _557  and  _558
REMARK  217  A    between atoms: _561  and  _563
REMARK  218  A    between atoms: _563  and  _564
REMARK  219  A    between atoms: _563  and  _566
REMARK  220  A    between atoms: _566  and  _567
REMARK  221  A    between atoms: _567  and  _568
REMARK  222  A    between atoms: _571  and  _573
REMARK  223  A    between atoms: _573  and  _574
REMARK  224  A    between atoms: _573  and  _576
REMARK  225  A    between atoms: _576  and  _577
REMARK  226  A    between atoms: _582  and  _584
REMARK  227  A    between atoms: _584  and  _585
REMARK  228  A    between atoms: _587  and  _589
REMARK  229  A    between atoms: _589  and  _590
REMARK  230  A    between atoms: _589  and  _592
REMARK  231  A    between atoms: _592  and  _593
REMARK  232  A    between atoms: _593  and  _594
REMARK  233  A    between atoms: _596  and  _598
REMARK  234  A    between atoms: _598  and  _599
REMARK  235  A    between atoms: _598  and  _601
REMARK  236  A    between atoms: _601  and  _602
REMARK  237  A    between atoms: _605  and  _607
REMARK  238  A    between atoms: _607  and  _608
REMARK  239  A    between atoms: _607  and  _610
REMARK  240  A    between atoms: _610  and  _611
REMARK  241  A    between atoms: _621  and  _623
REMARK  242  A    between atoms: _623  and  _624
REMARK  243  A    between atoms: _623  and  _626
REMARK  244  A    between atoms: _626  and  _627
REMARK  245  A    between atoms: _629  and  _631
REMARK  246  A    between atoms: _631  and  _632
REMARK  247  A    between atoms: _631  and  _634
REMARK  248  A    between atoms: _634  and  _635
REMARK  249  A    between atoms: _640  and  _642
REMARK  250  A    between atoms: _642  and  _643
REMARK  251  A    between atoms: _642  and  _645
REMARK  252  A    between atoms: _645  and  _646
REMARK  253  A    between atoms: _652  and  _654
REMARK  254  A    between atoms: _654  and  _655
REMARK  255  A    between atoms: _654  and  _657
REMARK  256  A    between atoms: _657  and  _658
REMARK  257  A    between atoms: _658  and  _659
REMARK  258  A    between atoms: _662  and  _664
REMARK  259  A    between atoms: _664  and  _665
REMARK  260  A    between atoms: _664  and  _667
REMARK  261  A    between atoms: _667  and  _668
REMARK  262  A    between atoms: _678  and  _680
REMARK  263  A    between atoms: _680  and  _681
REMARK  264  A    between atoms: _680  and  _683
REMARK  265  A    between atoms: _683  and  _684
REMARK  266  A    between atoms: _687  and  _689
REMARK  267  A    between atoms: _689  and  _690
REMARK  268  A    between atoms: _689  and  _692
REMARK  269  A    between atoms: _692  and  _693
REMARK  270  A    between atoms: _695  and  _697
REMARK  271  A    between atoms: _697  and  _698
REMARK  272  A    between atoms: _697  and  _700
REMARK  273  A    between atoms: _700  and  _701
REMARK  274  A    between atoms: _703  and  _705
REMARK  275  A    between atoms: _705  and  _706
REMARK  276  A    between atoms: _705  and  _708
REMARK  277  A    between atoms: _708  and  _709
REMARK                            x       y       z     vdW  Elec       q    Type
REMARK                         _______ _______ _______ _____ _____    ______ ____
ROOT
ATOM      1  C   ASN A   1      10.743  -4.357  37.115  0.00  0.00    +0.239 C 
ATOM      2  N   GLN A   2      11.023  -3.722  38.242  0.00  0.00    -0.298 N 
ATOM      3  H   GLN A   2      11.881  -3.135  38.277  0.00  0.00    +0.150 HD
ATOM      4  O   ASN A   1       9.799  -5.135  36.989  0.00  0.00    -0.274 OA
ENDROOT
BRANCH   1   5
ATOM      5  CA  ASN A   1      11.650  -4.032  35.933  0.00  0.00    +0.154 C 
BRANCH   5   6
ATOM      6  N   ASN A   1      12.397  -5.206  35.500  0.00  0.00    -0.238 NA
ATOM      7  H   ASN A   1      11.859  -6.033  35.169  0.00  0.00    +0.142 HD
ENDBRANCH   5   6
BRANCH   5   8
ATOM      8  CB  ASN A   1      10.787  -3.481  34.800  0.00  0.00    +0.111 C 
BRANCH   8   9
ATOM      9  CG  ASN A   1       9.995  -2.248  35.220  0.00  0.00    +0.221 C 
ATOM     10  ND2 ASN A   1       8.715  -2.431  35.508  0.00  0.00    -0.329 N 
ATOM     11 HD21 ASN A   1       8.123  -1.621  35.782  0.00  0.00    +0.145 HD
ATOM     12 HD22 ASN A   1       8.302  -3.384  35.460  0.00  0.00    +0.145 HD
ATOM     13  OD1 ASN A   1      10.532  -1.144  35.261  0.00  0.00    -0.275 OA
ENDBRANCH   8   9
ENDBRANCH   5   8
ENDBRANCH   1   5
BRANCH   2  14
ATOM     14  CA  GLN A   2      10.189  -3.803  39.440  0.00  0.00    +0.137 C 
BRANCH  14  15
ATOM     15  C   GLN A   2       9.839  -5.232  39.852  0.00  0.00    +0.227 C 
ATOM     16  O   GLN A   2       8.658  -5.588  39.905  0.00  0.00    -0.286 OA
ENDBRANCH  14  15
BRANCH  14  17
ATOM     17  CB  GLN A   2       8.900  -2.988  39.263  0.00  0.00    +0.037 C 
BRANCH  17  18
ATOM     18  CG  GLN A   2       9.160  -1.533  38.874  0.00  0.00    +0.087 C 
BRANCH  18  19
ATOM     19  CD  GLN A   2       7.942  -0.628  38.910  0.00  0.00    +0.219 C 
ATOM     20  OE1 GLN A   2       8.077   0.593  39.091  0.00  0.00    -0.275 OA
ATOM     21  NE2 GLN A   2       6.750  -1.194  38.735  0.00  0.00    -0.329 N 
ATOM     22 HE21 GLN A   2       5.890  -0.609  38.747  0.00  0.00    +0.145 HD
ATOM     23 HE22 GLN A   2       6.679  -2.221  38.586  0.00  0.00    +0.145 HD
ENDBRANCH  18  19
ENDBRANCH  17  18
ENDBRANCH  14  17
ENDBRANCH   2  14
TORSDOF 9
REMARK  Name = ../refined-set-2016/4qll/4qll_pocket.pdb
REMARK  277 active torsions:
REMARK  status: ('A' for Active; 'I' for Inactive)
REMARK    1  A    between atoms: _1  and  _3
REMARK    2  A    between atoms: _3  and  _4
REMARK    3  A    between atoms: _3  and  _6
REMARK    4  A    between atoms: _9  and  _11
REMARK    5  A    between atoms: _11  and  _12
REMARK    6  A    between atoms: _11  and  _14
REMARK    7  A    between atoms: _14  and  _15
REMARK    8  A    between atoms: _18  and  _20
REMARK    9  A    between atoms: _20  and  _21
REMARK   10  A    between atoms: _20  and  _23
REMARK   11  A    between atoms: _23  and  _24
REMARK   12  A    between atoms: _26  and  _28
REMARK   13  A    between atoms: _28  and  _29
REMARK   14  A    between atoms: _28  and  _31
REMARK   15  A    between atoms: _31  and  _32
REMARK   16  A    between atoms: _32  and  _33
REMARK   17  A    between atoms: _38  and  _40
REMARK   18  A    between atoms: _40  and  _41
REMARK   19  A    between atoms: _40  and  _43
REMARK   20  A    between atoms: _43  and  _44
REMARK   21  A    between atoms: _44  and  _45
REMARK   22  A    between atoms: _45  and  _46
REMARK   23  A    between atoms: _55  and  _57
REMARK   24  A    between atoms: _57  and  _58
REMARK   25  A    between atoms: _57  and  _60
REMARK   26  A    between atoms: _60  and  _61
REMARK   27  A    between atoms: _66  and  _68
REMARK   28  A    between atoms: _68  and  _69
REMARK   29  A    between atoms: _68  and  _71
REMARK   30  A    between atoms: _71  and  _72
REMARK   31  A    between atoms: _77  and  _78
REMARK   32  A    between atoms: _80  and  _82
REMARK   33  A    between atoms: _82  and  _83
REMARK   34  A    between atoms: _82  and  _85
REMARK   35  A    between atoms: _85  and  _86
REMARK   36  A    between atoms: _91  and  _93
REMARK   37  A    between atoms: _93  and  _94
REMARK   38  A    between atoms: _93  and  _96
REMARK   39  A    between atoms: _96  and  _97
REMARK   40  A    between atoms: _97  and  _98
REMARK   41  A    between atoms: _103  and  _105
REMARK   42  A    between atoms: _105  and  _106
REMARK   43  A    between atoms: _105  and  _108
REMARK   44  A    between atoms: _108  and  _109
REMARK   45  A    between atoms: _109  and  _110
REMARK   46  A    between atoms: _110  and  _111
REMARK   47  A    between atoms: _120  and  _122
REMARK   48  A    between atoms: _122  and  _123
REMARK   49  A    between atoms: _122  and  _125
REMARK   50  A    between atoms: _125  and  _126
REMARK   51  A    between atoms: _129  and  _131
REMARK   52  A    between atoms: _131  and  _132
REMARK   53  A    between atoms: _131  and  _134
REMARK   54  A    between atoms: _134  and  _135
REMARK   55  A    between atoms: _138  and  _140
REMARK   56  A    between atoms: _140  and  _141
REMARK   57  A    between atoms: _140  and  _143
REMARK   58  A    between atoms: _143  and  _144
REMARK   59  A    between atoms: _147  and  _149
REMARK   60  A    between atoms: _149  and  _150
REMARK   61  A    between atoms: _149  and  _152
REMARK   62  A    between atoms: _152  and  _153
REMARK   63  A    between atoms: _156  and  _158
REMARK   64  A    between atoms: _158  and  _159
REMARK   65  A    between atoms: _162  and  _164
REMARK   66  A    between atoms: _164  and  _165
REMARK   67  A    between atoms: _164  and  _167
REMARK   68  A    between atoms: _167  and  _168
REMARK   69  A    between atoms: _171  and  _173
REMARK   70  A    between atoms: _173  and  _174
REMARK   71  A    between atoms: _173  and  _176
REMARK   72  A    between atoms: _176  and  _177
REMARK   73  A    between atoms: _182  and  _184
REMARK   74  A    between atoms: _184  and  _185
REMARK   75  A    between atoms: _184  and  _187
REMARK   76  A    between atoms: _190  and  _192
REMARK   77  A    between atoms: _192  and  _193
REMARK   78  A    between atoms: _192  and  _195
REMARK   79  A    between atoms: _195  and  _196
REMARK   80  A    between atoms: _199  and  _201
REMARK   81  A    between atoms: _201  and  _202
REMARK   82  A    between atoms: _201  and  _204
REMARK   83  A    between atoms: _204  and  _205
REMARK   84  A    between atoms: _208  and  _210
REMARK   85  A    between atoms: _210  and  _211
REMARK   86  A    between atoms: _210  and  _213
REMARK   87  A    between atoms: _213  and  _214
REMARK   88  A    between atoms: _220  and  _222
REMARK   89  A    between atoms: _222  and  _223
REMARK   90  A    between atoms: _222  and  _225
REMARK   91  A    between atoms: _225  and  _226
REMARK   92  A    between atoms: _231  and  _233
REMARK   93  A    between atoms: _233  and  _234
REMARK   94  A    between atoms: _233  and  _236
REMARK   95  A    between atoms: _236  and  _237
REMARK   96  A    between atoms: _247  and  _249
REMARK   97  A    between atoms: _249  and  _250
REMARK   98  A    between atoms: _249  and  _252
REMARK   99  A    between atoms: _252  and  _253
REMARK  100  A    between atoms: _258  and  _259
REMARK  101  A    between atoms: _261  and  _263
REMARK  102  A    between atoms: _263  and  _264
REMARK  103  A    between atoms: _267  and  _269
REMARK  104  A    between atoms: _269  and  _270
REMARK  105  A    between atoms: _269  and  _272
REMARK  106  A    between atoms: _272  and  _273
REMARK  107  A    between atoms: _279  and  _281
REMARK  108  A    between atoms: _281  and  _282
REMARK  109  A    between atoms: _281  and  _284
REMARK  110  A    between atoms: _284  and  _285
REMARK  111  A    between atoms: _290  and  _292
REMARK  112  A    between atoms: _292  and  _293
REMARK  113  A    between atoms: _292  and  _295
REMARK  114  A    between atoms: _295  and  _296
REMARK  115  A    between atoms: _301  and  _303
REMARK  116  A    between atoms: _303  and  _304
REMARK  117  A    between atoms: _303  and  _306
REMARK  118  A    between atoms: _306  and  _307
REMARK  119  A    between atoms: _307  and  _308
REMARK  120  A    between atoms: _313  and  _315
REMARK  121  A    between atoms: _315  and  _316
REMARK  122  A    between atoms: _315  and  _318
REMARK  123  A    between atoms: _318  and  _319
REMARK  124  A    between atoms: _324  and  _325
REMARK  125  A    between atoms: _327  and  _329
REMARK  126  A    between atoms: _329  and  _330
REMARK  127  A    between atoms: _329  and  _332
REMARK  128  A    between atoms: _332  and  _333
REMARK  129  A    between atoms: _336  and  _338
REMARK  130  A    between atoms: _338  and  _339
REMARK  131  A    between atoms: _342  and  _344
REMARK  132  A    between atoms: _344  and  _345
REMARK  133  A    between atoms: _344  and  _347
REMARK  134  A    between atoms: _347  and  _348
REMARK  135  A    between atoms: _350  and  _352
REMARK  136  A    between atoms: _352  and  _353
REMARK  137  A    between atoms: _352  and  _355
REMARK  138  A    between atoms: _355  and  _356
REMARK  139  A    between atoms: _361  and  _362
REMARK  140  A    between atoms: _364  and  _366
REMARK  141  A    between atoms: _366  and  _367
REMARK  142  A    between atoms: _366  and  _369
REMARK  143  A    between atoms: _369  and  _370
REMARK  144  A    between atoms: _370  and  _371
REMARK  145  A    between atoms: _373  and  _375
REMARK  146  A    between atoms: _375  and  _376
REMARK  147  A    between atoms: _375  and  _378
REMARK  148  A    between atoms: _378  and  _379
REMARK  149  A    between atoms: _379  and  _380
REMARK  150  A    between atoms: _380  and  _381
REMARK  151  A    between atoms: _381  and  _382
REMARK  152  A    between atoms: _386  and  _388
REMARK  153  A    between atoms: _388  and  _389
REMARK  154  A    between atoms: _388  and  _391
REMARK  155  A    between atoms: _391  and  _392
REMARK  156  A    between atoms: _397  and  _398
REMARK  157  A    between atoms: _400  and  _402
REMARK  158  A    between atoms: _402  and  _403
REMARK  159  A    between atoms: _402  and  _405
REMARK  160  A    between atoms: _405  and  _406
REMARK  161  A    between atoms: _408  and  _410
REMARK  162  A    between atoms: _410  and  _411
REMARK  163  A    between atoms: _414  and  _416
REMARK  164  A    between atoms: _416  and  _417
REMARK  165  A    between atoms: _416  and  _419
REMARK  166  A    between atoms: _419  and  _420
REMARK  167  A    between atoms: _423  and  _425
REMARK  168  A    between atoms: _425  and  _426
REMARK  169  A    between atoms: _425  and  _428
REMARK  170  A    between atoms: _428  and  _429
REMARK  171  A    between atoms: _439  and  _441
REMARK  172  A    between atoms: _441  and  _442
REMARK  173  A    between atoms: _441  and  _444
REMARK  174  A    between atoms: _444  and  _445
REMARK  175  A    between atoms: _445  and  _446
REMARK  176  A    between atoms: _451  and  _453
REMARK  177  A    between atoms: _453  and  _454
REMARK  178  A    between atoms: _453  and  _456
REMARK  179  A    between atoms: _459  and  _461
REMARK  180  A    between atoms: _461  and  _462
REMARK  181  A    between atoms: _461  and  _464
REMARK  182  A    between atoms: _464  and  _465
REMARK  183  A    between atoms: _468  and  _470
REMARK  184  A    between atoms: _470  and  _471
REMARK  185  A    between atoms: _474  and  _476
REMARK  186  A    between atoms: _476  and  _477
REMARK  187  A    between atoms: _476  and  _479
REMARK  188  A    between atoms: _482  and  _484
REMARK  189  A    between atoms: _484  and  _485
REMARK  190  A    between atoms: _484  and  _487
REMARK  191  A    between atoms: _487  and  _488
REMARK  192  A    between atoms: _494  and  _496
REMARK  193  A    between atoms: _496  and  _497
REMARK  194  A    between atoms: _496  and  _499
REMARK  195  A    between atoms: _499  and  _500
REMARK  196  A    between atoms: _502  and  _504
REMARK  197  A    between atoms: _504  and  _505
REMARK  198  A    between atoms: _504  and  _507
REMARK  199  A    between atoms: _507  and  _508
REMARK  200  A    between atoms: _513  and  _515
REMARK  201  A    between atoms: _515  and  _516
REMARK  202  A    between atoms: _515  and  _518
REMARK  203  A    between atoms: _518  and  _519
REMARK  204  A    between atoms: _529  and  _531
REMARK  205  A    between atoms: _531  and  _532
REMARK  206  A    between atoms: _531  and  _534
REMARK  207  A    between atoms: _534  and  _535
REMARK  208  A    between atoms: _538  and  _540
REMARK  209  A    between atoms: _540  and  _541
REMARK  210  A    between atoms: _540  and  _543
REMARK  211  A    between atoms: _543  and  _544
REMARK  212  A    between atoms: _549  and  _550
REMARK  213  A    between atoms: _552  and  _554
REMARK  214  A    between atoms: _554  and  _555
REMARK  215  A    between atoms: _554  and  _557
REMARK  216  A    between atoms: _557  and  _558
REMARK  217  A    between atoms: _561  and  _563
REMARK  218  A    between atoms: _563  and  _564
REMARK  219  A    between atoms: _563  and  _566
REMARK  220  A    between atoms: _566  and  _567
REMARK  221  A    between atoms: _567  and  _568
REMARK  222  A    between atoms: _571  and  _573
REMARK  223  A    between atoms: _573  and  _574
REMARK  224  A    between atoms: _573  and  _576
REMARK  225  A    between atoms: _576  and  _577
REMARK  226  A    between atoms: _582  and  _584
REMARK  227  A    between atoms: _584  and  _585
REMARK  228  A    between atoms: _587  and  _589
REMARK  229  A    between atoms: _589  and  _590
REMARK  230  A    between atoms: _589  and  _592
REMARK  231  A    between atoms: _592  and  _593
REMARK  232  A    between atoms: _593  and  _594
REMARK  233  A    between atoms: _596  and  _598
REMARK  234  A    between atoms: _598  and  _599
REMARK  235  A    between atoms: _598  and  _601
REMARK  236  A    between atoms: _601  and  _602
REMARK  237  A    between atoms: _605  and  _607
REMARK  238  A    between atoms: _607  and  _608
REMARK  239  A    between atoms: _607  and  _610
REMARK  240  A    between atoms: _610  and  _611
REMARK  241  A    between atoms: _621  and  _623
REMARK  242  A    between atoms: _623  and  _624
REMARK  243  A    between atoms: _623  and  _626
REMARK  244  A    between atoms: _626  and  _627
REMARK  245  A    between atoms: _629  and  _631
REMARK  246  A    between atoms: _631  and  _632
REMARK  247  A    between atoms: _631  and  _634
REMARK  248  A    between atoms: _634  and  _635
REMARK  249  A    between atoms: _640  and  _642
REMARK  250  A    between atoms: _642  and  _643
REMARK  251  A    between atoms: _642  and  _645
REMARK  252  A    between atoms: _645  and  _646
REMARK  253  A    between atoms: _652  and  _654
REMARK  254  A    between atoms: _654  and  _655
REMARK  255  A    between atoms: _654  and  _657
REMARK  256  A    between atoms: _657  and  _658
REMARK  257  A    between atoms: _658  and  _659
REMARK  258  A    between atoms: _662  and  _664
REMARK  259  A    between atoms: _664  and  _665
REMARK  260  A    between atoms: _664  and  _667
REMARK  261  A    between atoms: _667  and  _668
REMARK  262  A    between atoms: _678  and  _680
REMARK  263  A    between atoms: _680  and  _681
REMARK  264  A    between atoms: _680  and  _683
REMARK  265  A    between atoms: _683  and  _684
REMARK  266  A    between atoms: _687  and  _689
REMARK  267  A    between atoms: _689  and  _690
REMARK  268  A    between atoms: _689  and  _692
REMARK  269  A    between atoms: _692  and  _693
REMARK  270  A    between atoms: _695  and  _697
REMARK  271  A    between atoms: _697  and  _698
REMARK  272  A    between atoms: _697  and  _700
REMARK  273  A    between atoms: _700  and  _701
REMARK  274  A    between atoms: _703  and  _705
REMARK  275  A    between atoms: _705  and  _706
REMARK  276  A    between atoms: _705  and  _708
REMARK  277  A    between atoms: _708  and  _709
REMARK                            x       y       z     vdW  Elec       q    Type
REMARK                         _______ _______ _______ _____ _____    ______ ____
ROOT
ATOM      1  CA  ARG A   1       8.884  -6.180  43.930  0.00  0.00    +0.145 C 
ENDROOT
BRANCH   1   2
ATOM      2  C   ARG A   1       7.404  -6.235  43.556  0.00  0.00    +0.238 C 
ATOM      3  O   ARG A   1       6.615  -6.874  44.246  0.00  0.00    -0.274 OA
ATOM      4  N   ILE A   2       7.046  -5.554  42.475  0.00  0.00    -0.298 N 
ATOM      5  H   ILE A   2       7.781  -5.057  41.932  0.00  0.00    +0.150 HD
BRANCH   4   6
ATOM      6  CA  ILE A   2       5.653  -5.473  42.014  0.00  0.00    +0.137 C 
BRANCH   6   7
ATOM      7  C   ILE A   2       5.212  -6.821  41.411  0.00  0.00    +0.227 C 
ATOM      8  O   ILE A   2       4.070  -7.251  41.597  0.00  0.00    -0.286 OA
ENDBRANCH   6   7
BRANCH   6   9
ATOM      9  CB  ILE A   2       5.460  -4.294  41.042  0.00  0.00    +0.026 C 
ATOM     10  CG2 ILE A   2       4.047  -4.255  40.462  0.00  0.00    +0.002 C 
BRANCH   9  11
ATOM     11  CG1 ILE A   2       5.772  -2.954  41.738  0.00  0.00    +0.002 C 
ATOM     12  CD1 ILE A   2       4.927  -2.651  42.961  0.00  0.00    +0.000 C 
ENDBRANCH   9  11
ENDBRANCH   6   9
ENDBRANCH   4   6
ENDBRANCH   1   2
BRANCH   1  13
ATOM     13  N   ARG A   1       9.772  -6.295  42.755  0.00  0.00    -0.238 NA
ATOM     14  H   ARG A   1      10.467  -5.548  42.554  0.00  0.00    +0.142 HD
ENDBRANCH   1  13
BRANCH   1  15
ATOM     15  CB  ARG A   1       9.145  -4.905  44.720  0.00  0.00    +0.030 C 
BRANCH  15  16
ATOM     16  CG  ARG A   1       8.462  -4.873  46.077  0.00  0.00    +0.045 C 
BRANCH  16  17
ATOM     17  CD  ARG A   1       8.475  -3.482  46.676  0.00  0.00    +0.174 C 
BRANCH  17  18
ATOM     18  NE  ARG A   1       7.346  -2.645  46.248  0.00  0.00    -0.265 N 
ATOM     19  CZ  ARG A   1       6.170  -2.575  46.872  0.00  0.00    +0.342 C 
ATOM     20  NH2 ARG A   1       5.931  -3.318  47.949  0.00  0.00    -0.292 N 
ATOM     21 HH21 ARG A   1       5.011  -3.257  48.429  0.00  0.00    +0.255 HD
ATOM     22 HH22 ARG A   1       6.665  -3.960  48.311  0.00  0.00    +0.255 HD
ATOM     23  NH1 ARG A   1       5.214  -1.771  46.408  0.00  0.00    -0.292 N 
ATOM     24 HH11 ARG A   1       4.297  -1.718  46.896  0.00  0.00    +0.255 HD
ATOM     25 HH12 ARG A   1       5.385  -1.197  45.558  0.00  0.00    +0.255 HD
ATOM     26  HE  ARG A   1       7.474  -2.064  45.395  0.00  0.00    +0.259 HD
ENDBRANCH  17  18
ENDBRANCH  16  17
ENDBRANCH  15  16
ENDBRANCH   1  15
TORSDOF 10
REMARK  Name = ../refined-set-2016/4qll/4qll_pocket.pdb
REMARK  277 active torsions:
REMARK  status: ('A' for Active; 'I' for Inactive)
REMARK    1  A    between atoms: _1  and  _3
REMARK    2  A    between atoms: _3  and  _4
REMARK    3  A    between atoms: _3  and  _6
REMARK    4  A    between atoms: _9  and  _11
REMARK    5  A    between atoms: _11  and  _12
REMARK    6  A    between atoms: _11  and  _14
REMARK    7  A    between atoms: _14  and  _15
REMARK    8  A    between atoms: _18  and  _20
REMARK    9  A    between atoms: _20  and  _21
REMARK   10  A    between atoms: _20  and  _23
REMARK   11  A    between atoms: _23  and  _24
REMARK   12  A    between atoms: _26  and  _28
REMARK   13  A    between atoms: _28  and  _29
REMARK   14  A    between atoms: _28  and  _31
REMARK   15  A    between atoms: _31  and  _32
REMARK   16  A    between atoms: _32  and  _33
REMARK   17  A    between atoms: _38  and  _40
REMARK   18  A    between atoms: _40  and  _41
REMARK   19  A    between atoms: _40  and  _43
REMARK   20  A    between atoms: _43  and  _44
REMARK   21  A    between atoms: _44  and  _45
REMARK   22  A    between atoms: _45  and  _46
REMARK   23  A    between atoms: _55  and  _57
REMARK   24  A    between atoms: _57  and  _58
REMARK   25  A    between atoms: _57  and  _60
REMARK   26  A    between atoms: _60  and  _61
REMARK   27  A    between atoms: _66  and  _68
REMARK   28  A    between atoms: _68  and  _69
REMARK   29  A    between atoms: _68  and  _71
REMARK   30  A    between atoms: _71  and  _72
REMARK   31  A    between atoms: _77  and  _78
REMARK   32  A    between atoms: _80  and  _82
REMARK   33  A    between atoms: _82  and  _83
REMARK   34  A    between atoms: _82  and  _85
REMARK   35  A    between atoms: _85  and  _86
REMARK   36  A    between atoms: _91  and  _93
REMARK   37  A    between atoms: _93  and  _94
REMARK   38  A    between atoms: _93  and  _96
REMARK   39  A    between atoms: _96  and  _97
REMARK   40  A    between atoms: _97  and  _98
REMARK   41  A    between atoms: _103  and  _105
REMARK   42  A    between atoms: _105  and  _106
REMARK   43  A    between atoms: _105  and  _108
REMARK   44  A    between atoms: _108  and  _109
REMARK   45  A    between atoms: _109  and  _110
REMARK   46  A    between atoms: _110  and  _111
REMARK   47  A    between atoms: _120  and  _122
REMARK   48  A    between atoms: _122  and  _123
REMARK   49  A    between atoms: _122  and  _125
REMARK   50  A    between atoms: _125  and  _126
REMARK   51  A    between atoms: _129  and  _131
REMARK   52  A    between atoms: _131  and  _132
REMARK   53  A    between atoms: _131  and  _134
REMARK   54  A    between atoms: _134  and  _135
REMARK   55  A    between atoms: _138  and  _140
REMARK   56  A    between atoms: _140  and  _141
REMARK   57  A    between atoms: _140  and  _143
REMARK   58  A    between atoms: _143  and  _144
REMARK   59  A    between atoms: _147  and  _149
REMARK   60  A    between atoms: _149  and  _150
REMARK   61  A    between atoms: _149  and  _152
REMARK   62  A    between atoms: _152  and  _153
REMARK   63  A    between atoms: _156  and  _158
REMARK   64  A    between atoms: _158  and  _159
REMARK   65  A    between atoms: _162  and  _164
REMARK   66  A    between atoms: _164  and  _165
REMARK   67  A    between atoms: _164  and  _167
REMARK   68  A    between atoms: _167  and  _168
REMARK   69  A    between atoms: _171  and  _173
REMARK   70  A    between atoms: _173  and  _174
REMARK   71  A    between atoms: _173  and  _176
REMARK   72  A    between atoms: _176  and  _177
REMARK   73  A    between atoms: _182  and  _184
REMARK   74  A    between atoms: _184  and  _185
REMARK   75  A    between atoms: _184  and  _187
REMARK   76  A    between atoms: _190  and  _192
REMARK   77  A    between atoms: _192  and  _193
REMARK   78  A    between atoms: _192  and  _195
REMARK   79  A    between atoms: _195  and  _196
REMARK   80  A    between atoms: _199  and  _201
REMARK   81  A    between atoms: _201  and  _202
REMARK   82  A    between atoms: _201  and  _204
REMARK   83  A    between atoms: _204  and  _205
REMARK   84  A    between atoms: _208  and  _210
REMARK   85  A    between atoms: _210  and  _211
REMARK   86  A    between atoms: _210  and  _213
REMARK   87  A    between atoms: _213  and  _214
REMARK   88  A    between atoms: _220  and  _222
REMARK   89  A    between atoms: _222  and  _223
REMARK   90  A    between atoms: _222  and  _225
REMARK   91  A    between atoms: _225  and  _226
REMARK   92  A    between atoms: _231  and  _233
REMARK   93  A    between atoms: _233  and  _234
REMARK   94  A    between atoms: _233  and  _236
REMARK   95  A    between atoms: _236  and  _237
REMARK   96  A    between atoms: _247  and  _249
REMARK   97  A    between atoms: _249  and  _250
REMARK   98  A    between atoms: _249  and  _252
REMARK   99  A    between atoms: _252  and  _253
REMARK  100  A    between atoms: _258  and  _259
REMARK  101  A    between atoms: _261  and  _263
REMARK  102  A    between atoms: _263  and  _264
REMARK  103  A    between atoms: _267  and  _269
REMARK  104  A    between atoms: _269  and  _270
REMARK  105  A    between atoms: _269  and  _272
REMARK  106  A    between atoms: _272  and  _273
REMARK  107  A    between atoms: _279  and  _281
REMARK  108  A    between atoms: _281  and  _282
REMARK  109  A    between atoms: _281  and  _284
REMARK  110  A    between atoms: _284  and  _285
REMARK  111  A    between atoms: _290  and  _292
REMARK  112  A    between atoms: _292  and  _293
REMARK  113  A    between atoms: _292  and  _295
REMARK  114  A    between atoms: _295  and  _296
REMARK  115  A    between atoms: _301  and  _303
REMARK  116  A    between atoms: _303  and  _304
REMARK  117  A    between atoms: _303  and  _306
REMARK  118  A    between atoms: _306  and  _307
REMARK  119  A    between atoms: _307  and  _308
REMARK  120  A    between atoms: _313  and  _315
REMARK  121  A    between atoms: _315  and  _316
REMARK  122  A    between atoms: _315  and  _318
REMARK  123  A    between atoms: _318  and  _319
REMARK  124  A    between atoms: _324  and  _325
REMARK  125  A    between atoms: _327  and  _329
REMARK  126  A    between atoms: _329  and  _330
REMARK  127  A    between atoms: _329  and  _332
REMARK  128  A    between atoms: _332  and  _333
REMARK  129  A    between atoms: _336  and  _338
REMARK  130  A    between atoms: _338  and  _339
REMARK  131  A    between atoms: _342  and  _344
REMARK  132  A    between atoms: _344  and  _345
REMARK  133  A    between atoms: _344  and  _347
REMARK  134  A    between atoms: _347  and  _348
REMARK  135  A    between atoms: _350  and  _352
REMARK  136  A    between atoms: _352  and  _353
REMARK  137  A    between atoms: _352  and  _355
REMARK  138  A    between atoms: _355  and  _356
REMARK  139  A    between atoms: _361  and  _362
REMARK  140  A    between atoms: _364  and  _366
REMARK  141  A    between atoms: _366  and  _367
REMARK  142  A    between atoms: _366  and  _369
REMARK  143  A    between atoms: _369  and  _370
REMARK  144  A    between atoms: _370  and  _371
REMARK  145  A    between atoms: _373  and  _375
REMARK  146  A    between atoms: _375  and  _376
REMARK  147  A    between atoms: _375  and  _378
REMARK  148  A    between atoms: _378  and  _379
REMARK  149  A    between atoms: _379  and  _380
REMARK  150  A    between atoms: _380  and  _381
REMARK  151  A    between atoms: _381  and  _382
REMARK  152  A    between atoms: _386  and  _388
REMARK  153  A    between atoms: _388  and  _389
REMARK  154  A    between atoms: _388  and  _391
REMARK  155  A    between atoms: _391  and  _392
REMARK  156  A    between atoms: _397  and  _398
REMARK  157  A    between atoms: _400  and  _402
REMARK  158  A    between atoms: _402  and  _403
REMARK  159  A    between atoms: _402  and  _405
REMARK  160  A    between atoms: _405  and  _406
REMARK  161  A    between atoms: _408  and  _410
REMARK  162  A    between atoms: _410  and  _411
REMARK  163  A    between atoms: _414  and  _416
REMARK  164  A    between atoms: _416  and  _417
REMARK  165  A    between atoms: _416  and  _419
REMARK  166  A    between atoms: _419  and  _420
REMARK  167  A    between atoms: _423  and  _425
REMARK  168  A    between atoms: _425  and  _426
REMARK  169  A    between atoms: _425  and  _428
REMARK  170  A    between atoms: _428  and  _429
REMARK  171  A    between atoms: _439  and  _441
REMARK  172  A    between atoms: _441  and  _442
REMARK  173  A    between atoms: _441  and  _444
REMARK  174  A    between atoms: _444  and  _445
REMARK  175  A    between atoms: _445  and  _446
REMARK  176  A    between atoms: _451  and  _453
REMARK  177  A    between atoms: _453  and  _454
REMARK  178  A    between atoms: _453  and  _456
REMARK  179  A    between atoms: _459  and  _461
REMARK  180  A    between atoms: _461  and  _462
REMARK  181  A    between atoms: _461  and  _464
REMARK  182  A    between atoms: _464  and  _465
REMARK  183  A    between atoms: _468  and  _470
REMARK  184  A    between atoms: _470  and  _471
REMARK  185  A    between atoms: _474  and  _476
REMARK  186  A    between atoms: _476  and  _477
REMARK  187  A    between atoms: _476  and  _479
REMARK  188  A    between atoms: _482  and  _484
REMARK  189  A    between atoms: _484  and  _485
REMARK  190  A    between atoms: _484  and  _487
REMARK  191  A    between atoms: _487  and  _488
REMARK  192  A    between atoms: _494  and  _496
REMARK  193  A    between atoms: _496  and  _497
REMARK  194  A    between atoms: _496  and  _499
REMARK  195  A    between atoms: _499  and  _500
REMARK  196  A    between atoms: _502  and  _504
REMARK  197  A    between atoms: _504  and  _505
REMARK  198  A    between atoms: _504  and  _507
REMARK  199  A    between atoms: _507  and  _508
REMARK  200  A    between atoms: _513  and  _515
REMARK  201  A    between atoms: _515  and  _516
REMARK  202  A    between atoms: _515  and  _518
REMARK  203  A    between atoms: _518  and  _519
REMARK  204  A    between atoms: _529  and  _531
REMARK  205  A    between atoms: _531  and  _532
REMARK  206  A    between atoms: _531  and  _534
REMARK  207  A    between atoms: _534  and  _535
REMARK  208  A    between atoms: _538  and  _540
REMARK  209  A    between atoms: _540  and  _541
REMARK  210  A    between atoms: _540  and  _543
REMARK  211  A    between atoms: _543  and  _544
REMARK  212  A    between atoms: _549  and  _550
REMARK  213  A    between atoms: _552  and  _554
REMARK  214  A    between atoms: _554  and  _555
REMARK  215  A    between atoms: _554  and  _557
REMARK  216  A    between atoms: _557  and  _558
REMARK  217  A    between atoms: _561  and  _563
REMARK  218  A    between atoms: _563  and  _564
REMARK  219  A    between atoms: _563  and  _566
REMARK  220  A    between atoms: _566  and  _567
REMARK  221  A    between atoms: _567  and  _568
REMARK  222  A    between atoms: _571  and  _573
REMARK  223  A    between atoms: _573  and  _574
REMARK  224  A    between atoms: _573  and  _576
REMARK  225  A    between atoms: _576  and  _577
REMARK  226  A    between atoms: _582  and  _584
REMARK  227  A    between atoms: _584  and  _585
REMARK  228  A    between atoms: _587  and  _589
REMARK  229  A    between atoms: _589  and  _590
REMARK  230  A    between atoms: _589  and  _592
REMARK  231  A    between atoms: _592  and  _593
REMARK  232  A    between atoms: _593  and  _594
REMARK  233  A    between atoms: _596  and  _598
REMARK  234  A    between atoms: _598  and  _599
REMARK  235  A    between atoms: _598  and  _601
REMARK  236  A    between atoms: _601  and  _602
REMARK  237  A    between atoms: _605  and  _607
REMARK  238  A    between atoms: _607  and  _608
REMARK  239  A    between atoms: _607  and  _610
REMARK  240  A    between atoms: _610  and  _611
REMARK  241  A    between atoms: _621  and  _623
REMARK  242  A    between atoms: _623  and  _624
REMARK  243  A    between atoms: _623  and  _626
REMARK  244  A    between atoms: _626  and  _627
REMARK  245  A    between atoms: _629  and  _631
REMARK  246  A    between atoms: _631  and  _632
REMARK  247  A    between atoms: _631  and  _634
REMARK  248  A    between atoms: _634  and  _635
REMARK  249  A    between atoms: _640  and  _642
REMARK  250  A    between atoms: _642  and  _643
REMARK  251  A    between atoms: _642  and  _645
REMARK  252  A    between atoms: _645  and  _646
REMARK  253  A    between atoms: _652  and  _654
REMARK  254  A    between atoms: _654  and  _655
REMARK  255  A    between atoms: _654  and  _657
REMARK  256  A    between atoms: _657  and  _658
REMARK  257  A    between atoms: _658  and  _659
REMARK  258  A    between atoms: _662  and  _664
REMARK  259  A    between atoms: _664  and  _665
REMARK  260  A    between atoms: _664  and  _667
REMARK  261  A    between atoms: _667  and  _668
REMARK  262  A    between atoms: _678  and  _680
REMARK  263  A    between atoms: _680  and  _681
REMARK  264  A    between atoms: _680  and  _683
REMARK  265  A    between atoms: _683  and  _684
REMARK  266  A    between atoms: _687  and  _689
REMARK  267  A    between atoms: _689  and  _690
REMARK  268  A    between atoms: _689  and  _692
REMARK  269  A    between atoms: _692  and  _693
REMARK  270  A    between atoms: _695  and  _697
REMARK  271  A    between atoms: _697  and  _698
REMARK  272  A    between atoms: _697  and  _700
REMARK  273  A    between atoms: _700  and  _701
REMARK  274  A    between atoms: _703  and  _705
REMARK  275  A    between atoms: _705  and  _706
REMARK  276  A    between atoms: _705  and  _708
REMARK  277  A    between atoms: _708  and  _709
REMARK                            x       y       z     vdW  Elec       q    Type
REMARK                         _______ _______ _______ _____ _____    ______ ____
ROOT
ATOM      1  C   LEU A   1       2.234  -8.662  44.604  0.00  0.00    +0.238 C 
ATOM      2  O   LEU A   1       1.341  -9.272  45.187  0.00  0.00    -0.274 OA
ATOM      3  N   LEU A   2       2.100  -8.193  43.374  0.00  0.00    -0.298 N 
ATOM      4  H   LEU A   2       2.920  -7.765  42.899  0.00  0.00    +0.150 HD
ENDROOT
BRANCH   1   5
ATOM      5  CA  LEU A   1       3.583  -8.401  45.297  0.00  0.00    +0.145 C 
BRANCH   5   6
ATOM      6  N   LEU A   1       4.722  -8.890  44.535  0.00  0.00    -0.238 NA
ATOM      7  H   LEU A   1       5.386  -8.202  44.126  0.00  0.00    +0.142 HD
ENDBRANCH   5   6
BRANCH   5   8
ATOM      8  CB  LEU A   1       3.728  -6.905  45.581  0.00  0.00    +0.026 C 
BRANCH   8   9
ATOM      9  CG  LEU A   1       2.523  -6.215  46.234  0.00  0.00    +0.002 C 
ATOM     10  CD2 LEU A   1       2.322  -6.673  47.671  0.00  0.00    +0.000 C 
ATOM     11  CD1 LEU A   1       2.674  -4.698  46.163  0.00  0.00    +0.000 C 
ENDBRANCH   8   9
ENDBRANCH   5   8
ENDBRANCH   1   5
BRANCH   3  12
ATOM     12  CA  LEU A   2       0.817  -8.265  42.667  0.00  0.00    +0.137 C 
BRANCH  12  13
ATOM     13  C   LEU A   2       0.579  -9.634  42.037  0.00  0.00    +0.227 C 
ATOM     14  O   LEU A   2      -0.560 -10.088  41.939  0.00  0.00    -0.286 OA
ENDBRANCH  12  13
BRANCH  12  15
ATOM     15  CB  LEU A   2       0.701  -7.145  41.621  0.00  0.00    +0.028 C 
BRANCH  15  16
ATOM     16  CG  LEU A   2       0.744  -5.719  42.218  0.00  0.00    +0.002 C 
ATOM     17  CD2 LEU A   2      -0.161  -5.535  43.426  0.00  0.00    +0.000 C 
ATOM     18  CD1 LEU A   2       0.415  -4.678  41.148  0.00  0.00    +0.000 C 
ENDBRANCH  15  16
ENDBRANCH  12  15
ENDBRANCH   3  12
TORSDOF 8
REMARK  Name = ../refined-set-2016/4qll/4qll_pocket.pdb
REMARK  277 active torsions:
REMARK  status: ('A' for Active; 'I' for Inactive)
REMARK    1  A    between atoms: _1  and  _3
REMARK    2  A    between atoms: _3  and  _4
REMARK    3  A    between atoms: _3  and  _6
REMARK    4  A    between atoms: _9  and  _11
REMARK    5  A    between atoms: _11  and  _12
REMARK    6  A    between atoms: _11  and  _14
REMARK    7  A    between atoms: _14  and  _15
REMARK    8  A    between atoms: _18  and  _20
REMARK    9  A    between atoms: _20  and  _21
REMARK   10  A    between atoms: _20  and  _23
REMARK   11  A    between atoms: _23  and  _24
REMARK   12  A    between atoms: _26  and  _28
REMARK   13  A    between atoms: _28  and  _29
REMARK   14  A    between atoms: _28  and  _31
REMARK   15  A    between atoms: _31  and  _32
REMARK   16  A    between atoms: _32  and  _33
REMARK   17  A    between atoms: _38  and  _40
REMARK   18  A    between atoms: _40  and  _41
REMARK   19  A    between atoms: _40  and  _43
REMARK   20  A    between atoms: _43  and  _44
REMARK   21  A    between atoms: _44  and  _45
REMARK   22  A    between atoms: _45  and  _46
REMARK   23  A    between atoms: _55  and  _57
REMARK   24  A    between atoms: _57  and  _58
REMARK   25  A    between atoms: _57  and  _60
REMARK   26  A    between atoms: _60  and  _61
REMARK   27  A    between atoms: _66  and  _68
REMARK   28  A    between atoms: _68  and  _69
REMARK   29  A    between atoms: _68  and  _71
REMARK   30  A    between atoms: _71  and  _72
REMARK   31  A    between atoms: _77  and  _78
REMARK   32  A    between atoms: _80  and  _82
REMARK   33  A    between atoms: _82  and  _83
REMARK   34  A    between atoms: _82  and  _85
REMARK   35  A    between atoms: _85  and  _86
REMARK   36  A    between atoms: _91  and  _93
REMARK   37  A    between atoms: _93  and  _94
REMARK   38  A    between atoms: _93  and  _96
REMARK   39  A    between atoms: _96  and  _97
REMARK   40  A    between atoms: _97  and  _98
REMARK   41  A    between atoms: _103  and  _105
REMARK   42  A    between atoms: _105  and  _106
REMARK   43  A    between atoms: _105  and  _108
REMARK   44  A    between atoms: _108  and  _109
REMARK   45  A    between atoms: _109  and  _110
REMARK   46  A    between atoms: _110  and  _111
REMARK   47  A    between atoms: _120  and  _122
REMARK   48  A    between atoms: _122  and  _123
REMARK   49  A    between atoms: _122  and  _125
REMARK   50  A    between atoms: _125  and  _126
REMARK   51  A    between atoms: _129  and  _131
REMARK   52  A    between atoms: _131  and  _132
REMARK   53  A    between atoms: _131  and  _134
REMARK   54  A    between atoms: _134  and  _135
REMARK   55  A    between atoms: _138  and  _140
REMARK   56  A    between atoms: _140  and  _141
REMARK   57  A    between atoms: _140  and  _143
REMARK   58  A    between atoms: _143  and  _144
REMARK   59  A    between atoms: _147  and  _149
REMARK   60  A    between atoms: _149  and  _150
REMARK   61  A    between atoms: _149  and  _152
REMARK   62  A    between atoms: _152  and  _153
REMARK   63  A    between atoms: _156  and  _158
REMARK   64  A    between atoms: _158  and  _159
REMARK   65  A    between atoms: _162  and  _164
REMARK   66  A    between atoms: _164  and  _165
REMARK   67  A    between atoms: _164  and  _167
REMARK   68  A    between atoms: _167  and  _168
REMARK   69  A    between atoms: _171  and  _173
REMARK   70  A    between atoms: _173  and  _174
REMARK   71  A    between atoms: _173  and  _176
REMARK   72  A    between atoms: _176  and  _177
REMARK   73  A    between atoms: _182  and  _184
REMARK   74  A    between atoms: _184  and  _185
REMARK   75  A    between atoms: _184  and  _187
REMARK   76  A    between atoms: _190  and  _192
REMARK   77  A    between atoms: _192  and  _193
REMARK   78  A    between atoms: _192  and  _195
REMARK   79  A    between atoms: _195  and  _196
REMARK   80  A    between atoms: _199  and  _201
REMARK   81  A    between atoms: _201  and  _202
REMARK   82  A    between atoms: _201  and  _204
REMARK   83  A    between atoms: _204  and  _205
REMARK   84  A    between atoms: _208  and  _210
REMARK   85  A    between atoms: _210  and  _211
REMARK   86  A    between atoms: _210  and  _213
REMARK   87  A    between atoms: _213  and  _214
REMARK   88  A    between atoms: _220  and  _222
REMARK   89  A    between atoms: _222  and  _223
REMARK   90  A    between atoms: _222  and  _225
REMARK   91  A    between atoms: _225  and  _226
REMARK   92  A    between atoms: _231  and  _233
REMARK   93  A    between atoms: _233  and  _234
REMARK   94  A    between atoms: _233  and  _236
REMARK   95  A    between atoms: _236  and  _237
REMARK   96  A    between atoms: _247  and  _249
REMARK   97  A    between atoms: _249  and  _250
REMARK   98  A    between atoms: _249  and  _252
REMARK   99  A    between atoms: _252  and  _253
REMARK  100  A    between atoms: _258  and  _259
REMARK  101  A    between atoms: _261  and  _263
REMARK  102  A    between atoms: _263  and  _264
REMARK  103  A    between atoms: _267  and  _269
REMARK  104  A    between atoms: _269  and  _270
REMARK  105  A    between atoms: _269  and  _272
REMARK  106  A    between atoms: _272  and  _273
REMARK  107  A    between atoms: _279  and  _281
REMARK  108  A    between atoms: _281  and  _282
REMARK  109  A    between atoms: _281  and  _284
REMARK  110  A    between atoms: _284  and  _285
REMARK  111  A    between atoms: _290  and  _292
REMARK  112  A    between atoms: _292  and  _293
REMARK  113  A    between atoms: _292  and  _295
REMARK  114  A    between atoms: _295  and  _296
REMARK  115  A    between atoms: _301  and  _303
REMARK  116  A    between atoms: _303  and  _304
REMARK  117  A    between atoms: _303  and  _306
REMARK  118  A    between atoms: _306  and  _307
REMARK  119  A    between atoms: _307  and  _308
REMARK  120  A    between atoms: _313  and  _315
REMARK  121  A    between atoms: _315  and  _316
REMARK  122  A    between atoms: _315  and  _318
REMARK  123  A    between atoms: _318  and  _319
REMARK  124  A    between atoms: _324  and  _325
REMARK  125  A    between atoms: _327  and  _329
REMARK  126  A    between atoms: _329  and  _330
REMARK  127  A    between atoms: _329  and  _332
REMARK  128  A    between atoms: _332  and  _333
REMARK  129  A    between atoms: _336  and  _338
REMARK  130  A    between atoms: _338  and  _339
REMARK  131  A    between atoms: _342  and  _344
REMARK  132  A    between atoms: _344  and  _345
REMARK  133  A    between atoms: _344  and  _347
REMARK  134  A    between atoms: _347  and  _348
REMARK  135  A    between atoms: _350  and  _352
REMARK  136  A    between atoms: _352  and  _353
REMARK  137  A    between atoms: _352  and  _355
REMARK  138  A    between atoms: _355  and  _356
REMARK  139  A    between atoms: _361  and  _362
REMARK  140  A    between atoms: _364  and  _366
REMARK  141  A    between atoms: _366  and  _367
REMARK  142  A    between atoms: _366  and  _369
REMARK  143  A    between atoms: _369  and  _370
REMARK  144  A    between atoms: _370  and  _371
REMARK  145  A    between atoms: _373  and  _375
REMARK  146  A    between atoms: _375  and  _376
REMARK  147  A    between atoms: _375  and  _378
REMARK  148  A    between atoms: _378  and  _379
REMARK  149  A    between atoms: _379  and  _380
REMARK  150  A    between atoms: _380  and  _381
REMARK  151  A    between atoms: _381  and  _382
REMARK  152  A    between atoms: _386  and  _388
REMARK  153  A    between atoms: _388  and  _389
REMARK  154  A    between atoms: _388  and  _391
REMARK  155  A    between atoms: _391  and  _392
REMARK  156  A    between atoms: _397  and  _398
REMARK  157  A    between atoms: _400  and  _402
REMARK  158  A    between atoms: _402  and  _403
REMARK  159  A    between atoms: _402  and  _405
REMARK  160  A    between atoms: _405  and  _406
REMARK  161  A    between atoms: _408  and  _410
REMARK  162  A    between atoms: _410  and  _411
REMARK  163  A    between atoms: _414  and  _416
REMARK  164  A    between atoms: _416  and  _417
REMARK  165  A    between atoms: _416  and  _419
REMARK  166  A    between atoms: _419  and  _420
REMARK  167  A    between atoms: _423  and  _425
REMARK  168  A    between atoms: _425  and  _426
REMARK  169  A    between atoms: _425  and  _428
REMARK  170  A    between atoms: _428  and  _429
REMARK  171  A    between atoms: _439  and  _441
REMARK  172  A    between atoms: _441  and  _442
REMARK  173  A    between atoms: _441  and  _444
REMARK  174  A    between atoms: _444  and  _445
REMARK  175  A    between atoms: _445  and  _446
REMARK  176  A    between atoms: _451  and  _453
REMARK  177  A    between atoms: _453  and  _454
REMARK  178  A    between atoms: _453  and  _456
REMARK  179  A    between atoms: _459  and  _461
REMARK  180  A    between atoms: _461  and  _462
REMARK  181  A    between atoms: _461  and  _464
REMARK  182  A    between atoms: _464  and  _465
REMARK  183  A    between atoms: _468  and  _470
REMARK  184  A    between atoms: _470  and  _471
REMARK  185  A    between atoms: _474  and  _476
REMARK  186  A    between atoms: _476  and  _477
REMARK  187  A    between atoms: _476  and  _479
REMARK  188  A    between atoms: _482  and  _484
REMARK  189  A    between atoms: _484  and  _485
REMARK  190  A    between atoms: _484  and  _487
REMARK  191  A    between atoms: _487  and  _488
REMARK  192  A    between atoms: _494  and  _496
REMARK  193  A    between atoms: _496  and  _497
REMARK  194  A    between atoms: _496  and  _499
REMARK  195  A    between atoms: _499  and  _500
REMARK  196  A    between atoms: _502  and  _504
REMARK  197  A    between atoms: _504  and  _505
REMARK  198  A    between atoms: _504  and  _507
REMARK  199  A    between atoms: _507  and  _508
REMARK  200  A    between atoms: _513  and  _515
REMARK  201  A    between atoms: _515  and  _516
REMARK  202  A    between atoms: _515  and  _518
REMARK  203  A    between atoms: _518  and  _519
REMARK  204  A    between atoms: _529  and  _531
REMARK  205  A    between atoms: _531  and  _532
REMARK  206  A    between atoms: _531  and  _534
REMARK  207  A    between atoms: _534  and  _535
REMARK  208  A    between atoms: _538  and  _540
REMARK  209  A    between atoms: _540  and  _541
REMARK  210  A    between atoms: _540  and  _543
REMARK  211  A    between atoms: _543  and  _544
REMARK  212  A    between atoms: _549  and  _550
REMARK  213  A    between atoms: _552  and  _554
REMARK  214  A    between atoms: _554  and  _555
REMARK  215  A    between atoms: _554  and  _557
REMARK  216  A    between atoms: _557  and  _558
REMARK  217  A    between atoms: _561  and  _563
REMARK  218  A    between atoms: _563  and  _564
REMARK  219  A    between atoms: _563  and  _566
REMARK  220  A    between atoms: _566  and  _567
REMARK  221  A    between atoms: _567  and  _568
REMARK  222  A    between atoms: _571  and  _573
REMARK  223  A    between atoms: _573  and  _574
REMARK  224  A    between atoms: _573  and  _576
REMARK  225  A    between atoms: _576  and  _577
REMARK  226  A    between atoms: _582  and  _584
REMARK  227  A    between atoms: _584  and  _585
REMARK  228  A    between atoms: _587  and  _589
REMARK  229  A    between atoms: _589  and  _590
REMARK  230  A    between atoms: _589  and  _592
REMARK  231  A    between atoms: _592  and  _593
REMARK  232  A    between atoms: _593  and  _594
REMARK  233  A    between atoms: _596  and  _598
REMARK  234  A    between atoms: _598  and  _599
REMARK  235  A    between atoms: _598  and  _601
REMARK  236  A    between atoms: _601  and  _602
REMARK  237  A    between atoms: _605  and  _607
REMARK  238  A    between atoms: _607  and  _608
REMARK  239  A    between atoms: _607  and  _610
REMARK  240  A    between atoms: _610  and  _611
REMARK  241  A    between atoms: _621  and  _623
REMARK  242  A    between atoms: _623  and  _624
REMARK  243  A    between atoms: _623  and  _626
REMARK  244  A    between atoms: _626  and  _627
REMARK  245  A    between atoms: _629  and  _631
REMARK  246  A    between atoms: _631  and  _632
REMARK  247  A    between atoms: _631  and  _634
REMARK  248  A    between atoms: _634  and  _635
REMARK  249  A    between atoms: _640  and  _642
REMARK  250  A    between atoms: _642  and  _643
REMARK  251  A    between atoms: _642  and  _645
REMARK  252  A    between atoms: _645  and  _646
REMARK  253  A    between atoms: _652  and  _654
REMARK  254  A    between atoms: _654  and  _655
REMARK  255  A    between atoms: _654  and  _657
REMARK  256  A    between atoms: _657  and  _658
REMARK  257  A    between atoms: _658  and  _659
REMARK  258  A    between atoms: _662  and  _664
REMARK  259  A    between atoms: _664  and  _665
REMARK  260  A    between atoms: _664  and  _667
REMARK  261  A    between atoms: _667  and  _668
REMARK  262  A    between atoms: _678  and  _680
REMARK  263  A    between atoms: _680  and  _681
REMARK  264  A    between atoms: _680  and  _683
REMARK  265  A    between atoms: _683  and  _684
REMARK  266  A    between atoms: _687  and  _689
REMARK  267  A    between atoms: _689  and  _690
REMARK  268  A    between atoms: _689  and  _692
REMARK  269  A    between atoms: _692  and  _693
REMARK  270  A    between atoms: _695  and  _697
REMARK  271  A    between atoms: _697  and  _698
REMARK  272  A    between atoms: _697  and  _700
REMARK  273  A    between atoms: _700  and  _701
REMARK  274  A    between atoms: _703  and  _705
REMARK  275  A    between atoms: _705  and  _706
REMARK  276  A    between atoms: _705  and  _708
REMARK  277  A    between atoms: _708  and  _709
REMARK                            x       y       z     vdW  Elec       q    Type
REMARK                         _______ _______ _______ _____ _____    ______ ____
ROOT
ATOM      1  C   ASP A   1      -0.637 -11.510  47.079  0.00  0.00    +0.239 C 
ATOM      2  O   ASP A   1      -1.509 -12.254  47.544  0.00  0.00    -0.274 OA
ATOM      3  N   ALA A   2      -0.919 -10.392  46.409  0.00  0.00    -0.298 N 
ATOM      4  H   ALA A   2      -0.138  -9.811  46.043  0.00  0.00    +0.150 HD
ENDROOT
BRANCH   3   5
ATOM      5  CA  ALA A   2      -2.291  -9.964  46.177  0.00  0.00    +0.137 C 
ATOM      6  CB  ALA A   2      -2.336  -8.479  45.810  0.00  0.00    +0.030 C 
BRANCH   5   7
ATOM      7  C   ALA A   2      -3.014 -10.803  45.106  0.00  0.00    +0.227 C 
ATOM      8  O   ALA A   2      -4.224 -10.967  45.160  0.00  0.00    -0.286 OA
ENDBRANCH   5   7
ENDBRANCH   3   5
BRANCH   1   9
ATOM      9  CA  ASP A   1       0.839 -11.882  47.217  0.00  0.00    +0.156 C 
BRANCH   9  10
ATOM     10  N   ASP A   1       1.344 -12.236  45.883  0.00  0.00    -0.238 NA
ATOM     11  H   ASP A   1       1.518 -11.475  45.196  0.00  0.00    +0.142 HD
ENDBRANCH   9  10
BRANCH   9  12
ATOM     12  CB  ASP A   1       1.687 -10.770  47.856  0.00  0.00    +0.140 C 
BRANCH  12  13
ATOM     13  CG  ASP A   1       1.134 -10.283  49.206  0.00  0.00    +0.367 C 
ATOM     14  OD2 ASP A   1       1.870  -9.565  49.919  0.00  0.00    -0.246 OA
ATOM     15  OD1 ASP A   1      -0.027 -10.598  49.556  0.00  0.00    -0.246 OA
ENDBRANCH  12  13
ENDBRANCH   9  12
ENDBRANCH   1   9
TORSDOF 6
REMARK  Name = ../refined-set-2016/4qll/4qll_pocket.pdb
REMARK  277 active torsions:
REMARK  status: ('A' for Active; 'I' for Inactive)
REMARK    1  A    between atoms: _1  and  _3
REMARK    2  A    between atoms: _3  and  _4
REMARK    3  A    between atoms: _3  and  _6
REMARK    4  A    between atoms: _9  and  _11
REMARK    5  A    between atoms: _11  and  _12
REMARK    6  A    between atoms: _11  and  _14
REMARK    7  A    between atoms: _14  and  _15
REMARK    8  A    between atoms: _18  and  _20
REMARK    9  A    between atoms: _20  and  _21
REMARK   10  A    between atoms: _20  and  _23
REMARK   11  A    between atoms: _23  and  _24
REMARK   12  A    between atoms: _26  and  _28
REMARK   13  A    between atoms: _28  and  _29
REMARK   14  A    between atoms: _28  and  _31
REMARK   15  A    between atoms: _31  and  _32
REMARK   16  A    between atoms: _32  and  _33
REMARK   17  A    between atoms: _38  and  _40
REMARK   18  A    between atoms: _40  and  _41
REMARK   19  A    between atoms: _40  and  _43
REMARK   20  A    between atoms: _43  and  _44
REMARK   21  A    between atoms: _44  and  _45
REMARK   22  A    between atoms: _45  and  _46
REMARK   23  A    between atoms: _55  and  _57
REMARK   24  A    between atoms: _57  and  _58
REMARK   25  A    between atoms: _57  and  _60
REMARK   26  A    between atoms: _60  and  _61
REMARK   27  A    between atoms: _66  and  _68
REMARK   28  A    between atoms: _68  and  _69
REMARK   29  A    between atoms: _68  and  _71
REMARK   30  A    between atoms: _71  and  _72
REMARK   31  A    between atoms: _77  and  _78
REMARK   32  A    between atoms: _80  and  _82
REMARK   33  A    between atoms: _82  and  _83
REMARK   34  A    between atoms: _82  and  _85
REMARK   35  A    between atoms: _85  and  _86
REMARK   36  A    between atoms: _91  and  _93
REMARK   37  A    between atoms: _93  and  _94
REMARK   38  A    between atoms: _93  and  _96
REMARK   39  A    between atoms: _96  and  _97
REMARK   40  A    between atoms: _97  and  _98
REMARK   41  A    between atoms: _103  and  _105
REMARK   42  A    between atoms: _105  and  _106
REMARK   43  A    between atoms: _105  and  _108
REMARK   44  A    between atoms: _108  and  _109
REMARK   45  A    between atoms: _109  and  _110
REMARK   46  A    between atoms: _110  and  _111
REMARK   47  A    between atoms: _120  and  _122
REMARK   48  A    between atoms: _122  and  _123
REMARK   49  A    between atoms: _122  and  _125
REMARK   50  A    between atoms: _125  and  _126
REMARK   51  A    between atoms: _129  and  _131
REMARK   52  A    between atoms: _131  and  _132
REMARK   53  A    between atoms: _131  and  _134
REMARK   54  A    between atoms: _134  and  _135
REMARK   55  A    between atoms: _138  and  _140
REMARK   56  A    between atoms: _140  and  _141
REMARK   57  A    between atoms: _140  and  _143
REMARK   58  A    between atoms: _143  and  _144
REMARK   59  A    between atoms: _147  and  _149
REMARK   60  A    between atoms: _149  and  _150
REMARK   61  A    between atoms: _149  and  _152
REMARK   62  A    between atoms: _152  and  _153
REMARK   63  A    between atoms: _156  and  _158
REMARK   64  A    between atoms: _158  and  _159
REMARK   65  A    between atoms: _162  and  _164
REMARK   66  A    between atoms: _164  and  _165
REMARK   67  A    between atoms: _164  and  _167
REMARK   68  A    between atoms: _167  and  _168
REMARK   69  A    between atoms: _171  and  _173
REMARK   70  A    between atoms: _173  and  _174
REMARK   71  A    between atoms: _173  and  _176
REMARK   72  A    between atoms: _176  and  _177
REMARK   73  A    between atoms: _182  and  _184
REMARK   74  A    between atoms: _184  and  _185
REMARK   75  A    between atoms: _184  and  _187
REMARK   76  A    between atoms: _190  and  _192
REMARK   77  A    between atoms: _192  and  _193
REMARK   78  A    between atoms: _192  and  _195
REMARK   79  A    between atoms: _195  and  _196
REMARK   80  A    between atoms: _199  and  _201
REMARK   81  A    between atoms: _201  and  _202
REMARK   82  A    between atoms: _201  and  _204
REMARK   83  A    between atoms: _204  and  _205
REMARK   84  A    between atoms: _208  and  _210
REMARK   85  A    between atoms: _210  and  _211
REMARK   86  A    between atoms: _210  and  _213
REMARK   87  A    between atoms: _213  and  _214
REMARK   88  A    between atoms: _220  and  _222
REMARK   89  A    between atoms: _222  and  _223
REMARK   90  A    between atoms: _222  and  _225
REMARK   91  A    between atoms: _225  and  _226
REMARK   92  A    between atoms: _231  and  _233
REMARK   93  A    between atoms: _233  and  _234
REMARK   94  A    between atoms: _233  and  _236
REMARK   95  A    between atoms: _236  and  _237
REMARK   96  A    between atoms: _247  and  _249
REMARK   97  A    between atoms: _249  and  _250
REMARK   98  A    between atoms: _249  and  _252
REMARK   99  A    between atoms: _252  and  _253
REMARK  100  A    between atoms: _258  and  _259
REMARK  101  A    between atoms: _261  and  _263
REMARK  102  A    between atoms: _263  and  _264
REMARK  103  A    between atoms: _267  and  _269
REMARK  104  A    between atoms: _269  and  _270
REMARK  105  A    between atoms: _269  and  _272
REMARK  106  A    between atoms: _272  and  _273
REMARK  107  A    between atoms: _279  and  _281
REMARK  108  A    between atoms: _281  and  _282
REMARK  109  A    between atoms: _281  and  _284
REMARK  110  A    between atoms: _284  and  _285
REMARK  111  A    between atoms: _290  and  _292
REMARK  112  A    between atoms: _292  and  _293
REMARK  113  A    between atoms: _292  and  _295
REMARK  114  A    between atoms: _295  and  _296
REMARK  115  A    between atoms: _301  and  _303
REMARK  116  A    between atoms: _303  and  _304
REMARK  117  A    between atoms: _303  and  _306
REMARK  118  A    between atoms: _306  and  _307
REMARK  119  A    between atoms: _307  and  _308
REMARK  120  A    between atoms: _313  and  _315
REMARK  121  A    between atoms: _315  and  _316
REMARK  122  A    between atoms: _315  and  _318
REMARK  123  A    between atoms: _318  and  _319
REMARK  124  A    between atoms: _324  and  _325
REMARK  125  A    between atoms: _327  and  _329
REMARK  126  A    between atoms: _329  and  _330
REMARK  127  A    between atoms: _329  and  _332
REMARK  128  A    between atoms: _332  and  _333
REMARK  129  A    between atoms: _336  and  _338
REMARK  130  A    between atoms: _338  and  _339
REMARK  131  A    between atoms: _342  and  _344
REMARK  132  A    between atoms: _344  and  _345
REMARK  133  A    between atoms: _344  and  _347
REMARK  134  A    between atoms: _347  and  _348
REMARK  135  A    between atoms: _350  and  _352
REMARK  136  A    between atoms: _352  and  _353
REMARK  137  A    between atoms: _352  and  _355
REMARK  138  A    between atoms: _355  and  _356
REMARK  139  A    between atoms: _361  and  _362
REMARK  140  A    between atoms: _364  and  _366
REMARK  141  A    between atoms: _366  and  _367
REMARK  142  A    between atoms: _366  and  _369
REMARK  143  A    between atoms: _369  and  _370
REMARK  144  A    between atoms: _370  and  _371
REMARK  145  A    between atoms: _373  and  _375
REMARK  146  A    between atoms: _375  and  _376
REMARK  147  A    between atoms: _375  and  _378
REMARK  148  A    between atoms: _378  and  _379
REMARK  149  A    between atoms: _379  and  _380
REMARK  150  A    between atoms: _380  and  _381
REMARK  151  A    between atoms: _381  and  _382
REMARK  152  A    between atoms: _386  and  _388
REMARK  153  A    between atoms: _388  and  _389
REMARK  154  A    between atoms: _388  and  _391
REMARK  155  A    between atoms: _391  and  _392
REMARK  156  A    between atoms: _397  and  _398
REMARK  157  A    between atoms: _400  and  _402
REMARK  158  A    between atoms: _402  and  _403
REMARK  159  A    between atoms: _402  and  _405
REMARK  160  A    between atoms: _405  and  _406
REMARK  161  A    between atoms: _408  and  _410
REMARK  162  A    between atoms: _410  and  _411
REMARK  163  A    between atoms: _414  and  _416
REMARK  164  A    between atoms: _416  and  _417
REMARK  165  A    between atoms: _416  and  _419
REMARK  166  A    between atoms: _419  and  _420
REMARK  167  A    between atoms: _423  and  _425
REMARK  168  A    between atoms: _425  and  _426
REMARK  169  A    between atoms: _425  and  _428
REMARK  170  A    between atoms: _428  and  _429
REMARK  171  A    between atoms: _439  and  _441
REMARK  172  A    between atoms: _441  and  _442
REMARK  173  A    between atoms: _441  and  _444
REMARK  174  A    between atoms: _444  and  _445
REMARK  175  A    between atoms: _445  and  _446
REMARK  176  A    between atoms: _451  and  _453
REMARK  177  A    between atoms: _453  and  _454
REMARK  178  A    between atoms: _453  and  _456
REMARK  179  A    between atoms: _459  and  _461
REMARK  180  A    between atoms: _461  and  _462
REMARK  181  A    between atoms: _461  and  _464
REMARK  182  A    between atoms: _464  and  _465
REMARK  183  A    between atoms: _468  and  _470
REMARK  184  A    between atoms: _470  and  _471
REMARK  185  A    between atoms: _474  and  _476
REMARK  186  A    between atoms: _476  and  _477
REMARK  187  A    between atoms: _476  and  _479
REMARK  188  A    between atoms: _482  and  _484
REMARK  189  A    between atoms: _484  and  _485
REMARK  190  A    between atoms: _484  and  _487
REMARK  191  A    between atoms: _487  and  _488
REMARK  192  A    between atoms: _494  and  _496
REMARK  193  A    between atoms: _496  and  _497
REMARK  194  A    between atoms: _496  and  _499
REMARK  195  A    between atoms: _499  and  _500
REMARK  196  A    between atoms: _502  and  _504
REMARK  197  A    between atoms: _504  and  _505
REMARK  198  A    between atoms: _504  and  _507
REMARK  199  A    between atoms: _507  and  _508
REMARK  200  A    between atoms: _513  and  _515
REMARK  201  A    between atoms: _515  and  _516
REMARK  202  A    between atoms: _515  and  _518
REMARK  203  A    between atoms: _518  and  _519
REMARK  204  A    between atoms: _529  and  _531
REMARK  205  A    between atoms: _531  and  _532
REMARK  206  A    between atoms: _531  and  _534
REMARK  207  A    between atoms: _534  and  _535
REMARK  208  A    between atoms: _538  and  _540
REMARK  209  A    between atoms: _540  and  _541
REMARK  210  A    between atoms: _540  and  _543
REMARK  211  A    between atoms: _543  and  _544
REMARK  212  A    between atoms: _549  and  _550
REMARK  213  A    between atoms: _552  and  _554
REMARK  214  A    between atoms: _554  and  _555
REMARK  215  A    between atoms: _554  and  _557
REMARK  216  A    between atoms: _557  and  _558
REMARK  217  A    between atoms: _561  and  _563
REMARK  218  A    between atoms: _563  and  _564
REMARK  219  A    between atoms: _563  and  _566
REMARK  220  A    between atoms: _566  and  _567
REMARK  221  A    between atoms: _567  and  _568
REMARK  222  A    between atoms: _571  and  _573
REMARK  223  A    between atoms: _573  and  _574
REMARK  224  A    between atoms: _573  and  _576
REMARK  225  A    between atoms: _576  and  _577
REMARK  226  A    between atoms: _582  and  _584
REMARK  227  A    between atoms: _584  and  _585
REMARK  228  A    between atoms: _587  and  _589
REMARK  229  A    between atoms: _589  and  _590
REMARK  230  A    between atoms: _589  and  _592
REMARK  231  A    between atoms: _592  and  _593
REMARK  232  A    between atoms: _593  and  _594
REMARK  233  A    between atoms: _596  and  _598
REMARK  234  A    between atoms: _598  and  _599
REMARK  235  A    between atoms: _598  and  _601
REMARK  236  A    between atoms: _601  and  _602
REMARK  237  A    between atoms: _605  and  _607
REMARK  238  A    between atoms: _607  and  _608
REMARK  239  A    between atoms: _607  and  _610
REMARK  240  A    between atoms: _610  and  _611
REMARK  241  A    between atoms: _621  and  _623
REMARK  242  A    between atoms: _623  and  _624
REMARK  243  A    between atoms: _623  and  _626
REMARK  244  A    between atoms: _626  and  _627
REMARK  245  A    between atoms: _629  and  _631
REMARK  246  A    between atoms: _631  and  _632
REMARK  247  A    between atoms: _631  and  _634
REMARK  248  A    between atoms: _634  and  _635
REMARK  249  A    between atoms: _640  and  _642
REMARK  250  A    between atoms: _642  and  _643
REMARK  251  A    between atoms: _642  and  _645
REMARK  252  A    between atoms: _645  and  _646
REMARK  253  A    between atoms: _652  and  _654
REMARK  254  A    between atoms: _654  and  _655
REMARK  255  A    between atoms: _654  and  _657
REMARK  256  A    between atoms: _657  and  _658
REMARK  257  A    between atoms: _658  and  _659
REMARK  258  A    between atoms: _662  and  _664
REMARK  259  A    between atoms: _664  and  _665
REMARK  260  A    between atoms: _664  and  _667
REMARK  261  A    between atoms: _667  and  _668
REMARK  262  A    between atoms: _678  and  _680
REMARK  263  A    between atoms: _680  and  _681
REMARK  264  A    between atoms: _680  and  _683
REMARK  265  A    between atoms: _683  and  _684
REMARK  266  A    between atoms: _687  and  _689
REMARK  267  A    between atoms: _689  and  _690
REMARK  268  A    between atoms: _689  and  _692
REMARK  269  A    between atoms: _692  and  _693
REMARK  270  A    between atoms: _695  and  _697
REMARK  271  A    between atoms: _697  and  _698
REMARK  272  A    between atoms: _697  and  _700
REMARK  273  A    between atoms: _700  and  _701
REMARK  274  A    between atoms: _703  and  _705
REMARK  275  A    between atoms: _705  and  _706
REMARK  276  A    between atoms: _705  and  _708
REMARK  277  A    between atoms: _708  and  _709
REMARK                            x       y       z     vdW  Elec       q    Type
REMARK                         _______ _______ _______ _____ _____    ______ ____
ROOT
ATOM      1  C   THR A   1      -3.396  -8.887  39.634  0.00  0.00    +0.241 C 
ATOM      2  N   ASN A   2      -2.166  -9.369  39.489  0.00  0.00    -0.298 N 
ATOM      3  H   ASN A   2      -1.691  -9.785  40.316  0.00  0.00    +0.150 HD
ATOM      4  O   THR A   1      -3.959  -8.209  38.761  0.00  0.00    -0.274 OA
ENDROOT
BRANCH   1   5
ATOM      5  CA  THR A   1      -4.100  -9.164  40.970  0.00  0.00    +0.172 C 
BRANCH   5   6
ATOM      6  N   THR A   1      -3.363 -10.039  41.887  0.00  0.00    -0.236 NA
ATOM      7  H   THR A   1      -2.574  -9.639  42.434  0.00  0.00    +0.142 HD
ENDBRANCH   5   6
BRANCH   5   8
ATOM      8  CB  THR A   1      -4.361  -7.805  41.625  0.00  0.00    +0.135 C 
ATOM      9  CG2 THR A   1      -5.269  -7.967  42.849  0.00  0.00    +0.034 C 
BRANCH   8  10
ATOM     10  OG1 THR A   1      -3.106  -7.246  42.025  0.00  0.00    -0.383 OA
ATOM     11  HG1 THR A   1      -3.259  -6.365  42.451  0.00  0.00    +0.210 HD
ENDBRANCH   8  10
ENDBRANCH   5   8
ENDBRANCH   1   5
BRANCH   2  12
ATOM     12  CA  ASN A   2      -1.452  -9.337  38.206  0.00  0.00    +0.146 C 
BRANCH  12  13
ATOM     13  C   ASN A   2      -1.122 -10.791  37.858  0.00  0.00    +0.227 C 
ATOM     14  O   ASN A   2      -1.109 -11.639  38.741  0.00  0.00    -0.286 OA
ENDBRANCH  12  13
BRANCH  12  15
ATOM     15  CB  ASN A   2      -0.137  -8.552  38.305  0.00  0.00    +0.112 C 
BRANCH  15  16
ATOM     16  CG  ASN A   2      -0.297  -7.041  38.128  0.00  0.00    +0.222 C 
ATOM     17  OD1 ASN A   2      -1.366  -6.467  38.312  0.00  0.00    -0.275 OA
ATOM     18  ND2 ASN A   2       0.796  -6.394  37.803  0.00  0.00    -0.329 N 
ATOM     19 HD21 ASN A   2       0.775  -5.360  37.693  0.00  0.00    +0.145 HD
ATOM     20 HD22 ASN A   2       1.684  -6.915  37.655  0.00  0.00    +0.145 HD
ENDBRANCH  15  16
ENDBRANCH  12  15
ENDBRANCH   2  12
TORSDOF 8
REMARK  Name = ../refined-set-2016/4qll/4qll_pocket.pdb
REMARK  277 active torsions:
REMARK  status: ('A' for Active; 'I' for Inactive)
REMARK    1  A    between atoms: _1  and  _3
REMARK    2  A    between atoms: _3  and  _4
REMARK    3  A    between atoms: _3  and  _6
REMARK    4  A    between atoms: _9  and  _11
REMARK    5  A    between atoms: _11  and  _12
REMARK    6  A    between atoms: _11  and  _14
REMARK    7  A    between atoms: _14  and  _15
REMARK    8  A    between atoms: _18  and  _20
REMARK    9  A    between atoms: _20  and  _21
REMARK   10  A    between atoms: _20  and  _23
REMARK   11  A    between atoms: _23  and  _24
REMARK   12  A    between atoms: _26  and  _28
REMARK   13  A    between atoms: _28  and  _29
REMARK   14  A    between atoms: _28  and  _31
REMARK   15  A    between atoms: _31  and  _32
REMARK   16  A    between atoms: _32  and  _33
REMARK   17  A    between atoms: _38  and  _40
REMARK   18  A    between atoms: _40  and  _41
REMARK   19  A    between atoms: _40  and  _43
REMARK   20  A    between atoms: _43  and  _44
REMARK   21  A    between atoms: _44  and  _45
REMARK   22  A    between atoms: _45  and  _46
REMARK   23  A    between atoms: _55  and  _57
REMARK   24  A    between atoms: _57  and  _58
REMARK   25  A    between atoms: _57  and  _60
REMARK   26  A    between atoms: _60  and  _61
REMARK   27  A    between atoms: _66  and  _68
REMARK   28  A    between atoms: _68  and  _69
REMARK   29  A    between atoms: _68  and  _71
REMARK   30  A    between atoms: _71  and  _72
REMARK   31  A    between atoms: _77  and  _78
REMARK   32  A    between atoms: _80  and  _82
REMARK   33  A    between atoms: _82  and  _83
REMARK   34  A    between atoms: _82  and  _85
REMARK   35  A    between atoms: _85  and  _86
REMARK   36  A    between atoms: _91  and  _93
REMARK   37  A    between atoms: _93  and  _94
REMARK   38  A    between atoms: _93  and  _96
REMARK   39  A    between atoms: _96  and  _97
REMARK   40  A    between atoms: _97  and  _98
REMARK   41  A    between atoms: _103  and  _105
REMARK   42  A    between atoms: _105  and  _106
REMARK   43  A    between atoms: _105  and  _108
REMARK   44  A    between atoms: _108  and  _109
REMARK   45  A    between atoms: _109  and  _110
REMARK   46  A    between atoms: _110  and  _111
REMARK   47  A    between atoms: _120  and  _122
REMARK   48  A    between atoms: _122  and  _123
REMARK   49  A    between atoms: _122  and  _125
REMARK   50  A    between atoms: _125  and  _126
REMARK   51  A    between atoms: _129  and  _131
REMARK   52  A    between atoms: _131  and  _132
REMARK   53  A    between atoms: _131  and  _134
REMARK   54  A    between atoms: _134  and  _135
REMARK   55  A    between atoms: _138  and  _140
REMARK   56  A    between atoms: _140  and  _141
REMARK   57  A    between atoms: _140  and  _143
REMARK   58  A    between atoms: _143  and  _144
REMARK   59  A    between atoms: _147  and  _149
REMARK   60  A    between atoms: _149  and  _150
REMARK   61  A    between atoms: _149  and  _152
REMARK   62  A    between atoms: _152  and  _153
REMARK   63  A    between atoms: _156  and  _158
REMARK   64  A    between atoms: _158  and  _159
REMARK   65  A    between atoms: _162  and  _164
REMARK   66  A    between atoms: _164  and  _165
REMARK   67  A    between atoms: _164  and  _167
REMARK   68  A    between atoms: _167  and  _168
REMARK   69  A    between atoms: _171  and  _173
REMARK   70  A    between atoms: _173  and  _174
REMARK   71  A    between atoms: _173  and  _176
REMARK   72  A    between atoms: _176  and  _177
REMARK   73  A    between atoms: _182  and  _184
REMARK   74  A    between atoms: _184  and  _185
REMARK   75  A    between atoms: _184  and  _187
REMARK   76  A    between atoms: _190  and  _192
REMARK   77  A    between atoms: _192  and  _193
REMARK   78  A    between atoms: _192  and  _195
REMARK   79  A    between atoms: _195  and  _196
REMARK   80  A    between atoms: _199  and  _201
REMARK   81  A    between atoms: _201  and  _202
REMARK   82  A    between atoms: _201  and  _204
REMARK   83  A    between atoms: _204  and  _205
REMARK   84  A    between atoms: _208  and  _210
REMARK   85  A    between atoms: _210  and  _211
REMARK   86  A    between atoms: _210  and  _213
REMARK   87  A    between atoms: _213  and  _214
REMARK   88  A    between atoms: _220  and  _222
REMARK   89  A    between atoms: _222  and  _223
REMARK   90  A    between atoms: _222  and  _225
REMARK   91  A    between atoms: _225  and  _226
REMARK   92  A    between atoms: _231  and  _233
REMARK   93  A    between atoms: _233  and  _234
REMARK   94  A    between atoms: _233  and  _236
REMARK   95  A    between atoms: _236  and  _237
REMARK   96  A    between atoms: _247  and  _249
REMARK   97  A    between atoms: _249  and  _250
REMARK   98  A    between atoms: _249  and  _252
REMARK   99  A    between atoms: _252  and  _253
REMARK  100  A    between atoms: _258  and  _259
REMARK  101  A    between atoms: _261  and  _263
REMARK  102  A    between atoms: _263  and  _264
REMARK  103  A    between atoms: _267  and  _269
REMARK  104  A    between atoms: _269  and  _270
REMARK  105  A    between atoms: _269  and  _272
REMARK  106  A    between atoms: _272  and  _273
REMARK  107  A    between atoms: _279  and  _281
REMARK  108  A    between atoms: _281  and  _282
REMARK  109  A    between atoms: _281  and  _284
REMARK  110  A    between atoms: _284  and  _285
REMARK  111  A    between atoms: _290  and  _292
REMARK  112  A    between atoms: _292  and  _293
REMARK  113  A    between atoms: _292  and  _295
REMARK  114  A    between atoms: _295  and  _296
REMARK  115  A    between atoms: _301  and  _303
REMARK  116  A    between atoms: _303  and  _304
REMARK  117  A    between atoms: _303  and  _306
REMARK  118  A    between atoms: _306  and  _307
REMARK  119  A    between atoms: _307  and  _308
REMARK  120  A    between atoms: _313  and  _315
REMARK  121  A    between atoms: _315  and  _316
REMARK  122  A    between atoms: _315  and  _318
REMARK  123  A    between atoms: _318  and  _319
REMARK  124  A    between atoms: _324  and  _325
REMARK  125  A    between atoms: _327  and  _329
REMARK  126  A    between atoms: _329  and  _330
REMARK  127  A    between atoms: _329  and  _332
REMARK  128  A    between atoms: _332  and  _333
REMARK  129  A    between atoms: _336  and  _338
REMARK  130  A    between atoms: _338  and  _339
REMARK  131  A    between atoms: _342  and  _344
REMARK  132  A    between atoms: _344  and  _345
REMARK  133  A    between atoms: _344  and  _347
REMARK  134  A    between atoms: _347  and  _348
REMARK  135  A    between atoms: _350  and  _352
REMARK  136  A    between atoms: _352  and  _353
REMARK  137  A    between atoms: _352  and  _355
REMARK  138  A    between atoms: _355  and  _356
REMARK  139  A    between atoms: _361  and  _362
REMARK  140  A    between atoms: _364  and  _366
REMARK  141  A    between atoms: _366  and  _367
REMARK  142  A    between atoms: _366  and  _369
REMARK  143  A    between atoms: _369  and  _370
REMARK  144  A    between atoms: _370  and  _371
REMARK  145  A    between atoms: _373  and  _375
REMARK  146  A    between atoms: _375  and  _376
REMARK  147  A    between atoms: _375  and  _378
REMARK  148  A    between atoms: _378  and  _379
REMARK  149  A    between atoms: _379  and  _380
REMARK  150  A    between atoms: _380  and  _381
REMARK  151  A    between atoms: _381  and  _382
REMARK  152  A    between atoms: _386  and  _388
REMARK  153  A    between atoms: _388  and  _389
REMARK  154  A    between atoms: _388  and  _391
REMARK  155  A    between atoms: _391  and  _392
REMARK  156  A    between atoms: _397  and  _398
REMARK  157  A    between atoms: _400  and  _402
REMARK  158  A    between atoms: _402  and  _403
REMARK  159  A    between atoms: _402  and  _405
REMARK  160  A    between atoms: _405  and  _406
REMARK  161  A    between atoms: _408  and  _410
REMARK  162  A    between atoms: _410  and  _411
REMARK  163  A    between atoms: _414  and  _416
REMARK  164  A    between atoms: _416  and  _417
REMARK  165  A    between atoms: _416  and  _419
REMARK  166  A    between atoms: _419  and  _420
REMARK  167  A    between atoms: _423  and  _425
REMARK  168  A    between atoms: _425  and  _426
REMARK  169  A    between atoms: _425  and  _428
REMARK  170  A    between atoms: _428  and  _429
REMARK  171  A    between atoms: _439  and  _441
REMARK  172  A    between atoms: _441  and  _442
REMARK  173  A    between atoms: _441  and  _444
REMARK  174  A    between atoms: _444  and  _445
REMARK  175  A    between atoms: _445  and  _446
REMARK  176  A    between atoms: _451  and  _453
REMARK  177  A    between atoms: _453  and  _454
REMARK  178  A    between atoms: _453  and  _456
REMARK  179  A    between atoms: _459  and  _461
REMARK  180  A    between atoms: _461  and  _462
REMARK  181  A    between atoms: _461  and  _464
REMARK  182  A    between atoms: _464  and  _465
REMARK  183  A    between atoms: _468  and  _470
REMARK  184  A    between atoms: _470  and  _471
REMARK  185  A    between atoms: _474  and  _476
REMARK  186  A    between atoms: _476  and  _477
REMARK  187  A    between atoms: _476  and  _479
REMARK  188  A    between atoms: _482  and  _484
REMARK  189  A    between atoms: _484  and  _485
REMARK  190  A    between atoms: _484  and  _487
REMARK  191  A    between atoms: _487  and  _488
REMARK  192  A    between atoms: _494  and  _496
REMARK  193  A    between atoms: _496  and  _497
REMARK  194  A    between atoms: _496  and  _499
REMARK  195  A    between atoms: _499  and  _500
REMARK  196  A    between atoms: _502  and  _504
REMARK  197  A    between atoms: _504  and  _505
REMARK  198  A    between atoms: _504  and  _507
REMARK  199  A    between atoms: _507  and  _508
REMARK  200  A    between atoms: _513  and  _515
REMARK  201  A    between atoms: _515  and  _516
REMARK  202  A    between atoms: _515  and  _518
REMARK  203  A    between atoms: _518  and  _519
REMARK  204  A    between atoms: _529  and  _531
REMARK  205  A    between atoms: _531  and  _532
REMARK  206  A    between atoms: _531  and  _534
REMARK  207  A    between atoms: _534  and  _535
REMARK  208  A    between atoms: _538  and  _540
REMARK  209  A    between atoms: _540  and  _541
REMARK  210  A    between atoms: _540  and  _543
REMARK  211  A    between atoms: _543  and  _544
REMARK  212  A    between atoms: _549  and  _550
REMARK  213  A    between atoms: _552  and  _554
REMARK  214  A    between atoms: _554  and  _555
REMARK  215  A    between atoms: _554  and  _557
REMARK  216  A    between atoms: _557  and  _558
REMARK  217  A    between atoms: _561  and  _563
REMARK  218  A    between atoms: _563  and  _564
REMARK  219  A    between atoms: _563  and  _566
REMARK  220  A    between atoms: _566  and  _567
REMARK  221  A    between atoms: _567  and  _568
REMARK  222  A    between atoms: _571  and  _573
REMARK  223  A    between atoms: _573  and  _574
REMARK  224  A    between atoms: _573  and  _576
REMARK  225  A    between atoms: _576  and  _577
REMARK  226  A    between atoms: _582  and  _584
REMARK  227  A    between atoms: _584  and  _585
REMARK  228  A    between atoms: _587  and  _589
REMARK  229  A    between atoms: _589  and  _590
REMARK  230  A    between atoms: _589  and  _592
REMARK  231  A    between atoms: _592  and  _593
REMARK  232  A    between atoms: _593  and  _594
REMARK  233  A    between atoms: _596  and  _598
REMARK  234  A    between atoms: _598  and  _599
REMARK  235  A    between atoms: _598  and  _601
REMARK  236  A    between atoms: _601  and  _602
REMARK  237  A    between atoms: _605  and  _607
REMARK  238  A    between atoms: _607  and  _608
REMARK  239  A    between atoms: _607  and  _610
REMARK  240  A    between atoms: _610  and  _611
REMARK  241  A    between atoms: _621  and  _623
REMARK  242  A    between atoms: _623  and  _624
REMARK  243  A    between atoms: _623  and  _626
REMARK  244  A    between atoms: _626  and  _627
REMARK  245  A    between atoms: _629  and  _631
REMARK  246  A    between atoms: _631  and  _632
REMARK  247  A    between atoms: _631  and  _634
REMARK  248  A    between atoms: _634  and  _635
REMARK  249  A    between atoms: _640  and  _642
REMARK  250  A    between atoms: _642  and  _643
REMARK  251  A    between atoms: _642  and  _645
REMARK  252  A    between atoms: _645  and  _646
REMARK  253  A    between atoms: _652  and  _654
REMARK  254  A    between atoms: _654  and  _655
REMARK  255  A    between atoms: _654  and  _657
REMARK  256  A    between atoms: _657  and  _658
REMARK  257  A    between atoms: _658  and  _659
REMARK  258  A    between atoms: _662  and  _664
REMARK  259  A    between atoms: _664  and  _665
REMARK  260  A    between atoms: _664  and  _667
REMARK  261  A    between atoms: _667  and  _668
REMARK  262  A    between atoms: _678  and  _680
REMARK  263  A    between atoms: _680  and  _681
REMARK  264  A    between atoms: _680  and  _683
REMARK  265  A    between atoms: _683  and  _684
REMARK  266  A    between atoms: _687  and  _689
REMARK  267  A    between atoms: _689  and  _690
REMARK  268  A    between atoms: _689  and  _692
REMARK  269  A    between atoms: _692  and  _693
REMARK  270  A    between atoms: _695  and  _697
REMARK  271  A    between atoms: _697  and  _698
REMARK  272  A    between atoms: _697  and  _700
REMARK  273  A    between atoms: _700  and  _701
REMARK  274  A    between atoms: _703  and  _705
REMARK  275  A    between atoms: _705  and  _706
REMARK  276  A    between atoms: _705  and  _708
REMARK  277  A    between atoms: _708  and  _709
REMARK                            x       y       z     vdW  Elec       q    Type
REMARK                         _______ _______ _______ _____ _____    ______ ____
ROOT
ATOM      1  C   PHE A   4      10.222   4.052  45.608  0.00  0.00    +0.241 C 
ATOM      2  N   ASN A   5       9.220   3.918  46.458  0.00  0.00    -0.297 N 
ATOM      3  H   ASN A   5       8.938   2.971  46.783  0.00  0.00    +0.150 HD
ATOM      4  O   PHE A   4      10.424   5.087  44.968  0.00  0.00    -0.273 OA
ENDROOT
BRANCH   1   5
ATOM      5  CA  PHE A   4      11.098   2.825  45.418  0.00  0.00    +0.153 C 
BRANCH   5   8
ATOM      6  C   ASP A   3      10.969   1.040  43.803  0.00  0.00    +0.241 C 
ATOM      7  O   ASP A   3      11.347   0.198  44.633  0.00  0.00    -0.273 OA
ATOM      8  N   PHE A   4      10.874   2.330  44.077  0.00  0.00    -0.297 N 
ATOM      9  H   PHE A   4      10.635   2.999  43.317  0.00  0.00    +0.150 HD
BRANCH   6  10
ATOM     10  CA  ASP A   3      10.590   0.654  42.382  0.00  0.00    +0.160 C 
BRANCH  10  12
ATOM     11  C   LEU A   2      12.697  -0.118  41.478  0.00  0.00    +0.241 C 
ATOM     12  N   ASP A   3      11.467  -0.410  41.900  0.00  0.00    -0.297 N 
ATOM     13  H   ASP A   3      11.132  -1.394  41.886  0.00  0.00    +0.150 HD
ATOM     14  O   LEU A   2      13.088   1.050  41.350  0.00  0.00    -0.273 OA
BRANCH  11  15
ATOM     15  CA  LEU A   2      13.641  -1.289  41.177  0.00  0.00    +0.149 C 
BRANCH  15  17
ATOM     16  C   VAL A   1      14.369  -1.859  38.913  0.00  0.00    +0.238 C 
ATOM     17  N   LEU A   2      14.400  -1.054  39.960  0.00  0.00    -0.297 N 
ATOM     18  H   LEU A   2      15.000  -0.206  39.911  0.00  0.00    +0.150 HD
ATOM     19  O   VAL A   1      13.673  -2.880  38.852  0.00  0.00    -0.274 OA
BRANCH  16  20
ATOM     20  CA  VAL A   1      15.250  -1.434  37.740  0.00  0.00    +0.145 C 
BRANCH  20  21
ATOM     21  CB  VAL A   1      14.361  -1.034  36.537  0.00  0.00    +0.025 C 
ATOM     22  CG2 VAL A   1      13.297  -0.025  36.953  0.00  0.00    +0.002 C 
ATOM     23  CG1 VAL A   1      15.209  -0.451  35.418  0.00  0.00    +0.002 C 
ENDBRANCH  20  21
BRANCH  20  24
ATOM     24  N   VAL A   1      16.179  -2.495  37.410  0.00  0.00    -0.238 NA
ATOM     25  H   VAL A   1      15.809  -3.367  36.981  0.00  0.00    +0.142 HD
ENDBRANCH  20  24
ENDBRANCH  16  20
ENDBRANCH  15  17
BRANCH  15  26
ATOM     26  CB  LEU A   2      14.611  -1.462  42.341  0.00  0.00    +0.029 C 
BRANCH  26  27
ATOM     27  CG  LEU A   2      15.765  -2.466  42.156  0.00  0.00    +0.002 C 
ATOM     28  CD2 LEU A   2      16.771  -2.357  43.294  0.00  0.00    +0.000 C 
ATOM     29  CD1 LEU A   2      15.196  -3.878  42.027  0.00  0.00    +0.000 C 
ENDBRANCH  26  27
ENDBRANCH  15  26
ENDBRANCH  11  15
ENDBRANCH  10  12
BRANCH  10  30
ATOM     30  CB  ASP A   3       9.118   0.279  42.323  0.00  0.00    +0.143 C 
BRANCH  30  31
ATOM     31  CG  ASP A   3       8.822  -1.013  43.045  0.00  0.00    +0.367 C 
ATOM     32  OD2 ASP A   3       8.140  -0.973  44.103  0.00  0.00    -0.246 OA
ATOM     33  OD1 ASP A   3       9.259  -2.063  42.531  0.00  0.00    -0.246 OA
ENDBRANCH  30  31
ENDBRANCH  10  30
ENDBRANCH   6  10
ENDBRANCH   5   8
BRANCH   5  34
ATOM     34  CB  PHE A   4      12.588   3.123  45.643  0.00  0.00    +0.055 C 
BRANCH  34  35
ATOM     35  CG  PHE A   4      12.952   3.531  47.060  0.00  0.00    -0.020 A 
ATOM     36  CD2 PHE A   4      12.162   3.192  48.151  0.00  0.00    -0.004 A 
ATOM     37  CE2 PHE A   4      12.513   3.583  49.448  0.00  0.00    -0.000 A 
ATOM     38  CZ  PHE A   4      13.665   4.329  49.659  0.00  0.00    -0.000 A 
ATOM     39  CE1 PHE A   4      14.470   4.654  48.585  0.00  0.00    -0.000 A 
ATOM     40  CD1 PHE A   4      14.115   4.260  47.294  0.00  0.00    -0.004 A 
ENDBRANCH  34  35
ENDBRANCH   5  34
ENDBRANCH   1   5
BRANCH   2  41
ATOM     41  CA  ASN A   5       8.507   5.097  46.943  0.00  0.00    +0.158 C 
BRANCH  41  42
ATOM     42  C   ASN A   5       8.955   5.427  48.356  0.00  0.00    +0.241 C 
ATOM     43  O   ASN A   5       9.322   4.547  49.122  0.00  0.00    -0.273 OA
ATOM     44  N   TRP A   6       8.945   6.714  48.679  0.00  0.00    -0.297 N 
ATOM     45  H   TRP A   6       8.517   7.407  48.032  0.00  0.00    +0.150 HD
BRANCH  44  46
ATOM     46  CA  TRP A   6       9.529   7.158  49.931  0.00  0.00    +0.153 C 
BRANCH  46  47
ATOM     47  C   TRP A   6       8.595   6.835  51.094  0.00  0.00    +0.241 C 
ATOM     48  N   TYR A   7       9.183   6.537  52.250  0.00  0.00    -0.298 N 
ATOM     49  H   TYR A   7      10.217   6.424  52.270  0.00  0.00    +0.150 HD
ATOM     50  O   TRP A   6       7.382   6.836  50.931  0.00  0.00    -0.273 OA
BRANCH  48  51
ATOM     51  CA  TYR A   7       8.433   6.363  53.491  0.00  0.00    +0.141 C 
BRANCH  51  52
ATOM     52  C   TYR A   7       9.012   7.318  54.513  0.00  0.00    +0.227 C 
ATOM     53  O   TYR A   7      10.218   7.322  54.745  0.00  0.00    -0.286 OA
ENDBRANCH  51  52
BRANCH  51  54
ATOM     54  CB  TYR A   7       8.524   4.939  54.009  0.00  0.00    +0.054 C 
BRANCH  54  55
ATOM     55  CG  TYR A   7       7.946   3.929  53.064  0.00  0.00    -0.020 A 
ATOM     56  CD2 TYR A   7       6.595   3.955  52.738  0.00  0.00    -0.001 A 
ATOM     57  CE2 TYR A   7       6.053   3.029  51.867  0.00  0.00    +0.036 A 
ATOM     58  CZ  TYR A   7       6.864   2.068  51.298  0.00  0.00    +0.134 A 
ATOM     59  CE1 TYR A   7       8.211   2.039  51.578  0.00  0.00    +0.036 A 
ATOM     60  CD1 TYR A   7       8.747   2.966  52.458  0.00  0.00    -0.001 A 
BRANCH  58  61
ATOM     61  OH  TYR A   7       6.322   1.168  50.423  0.00  0.00    -0.506 OA
ATOM     62  HH  TYR A   7       7.028   0.551  50.106  0.00  0.00    +0.292 HD
ENDBRANCH  58  61
ENDBRANCH  54  55
ENDBRANCH  51  54
ENDBRANCH  48  51
ENDBRANCH  46  47
BRANCH  46  63
ATOM     63  CB  TRP A   6       9.841   8.649  49.882  0.00  0.00    +0.057 C 
BRANCH  63  64
ATOM     64  CG  TRP A   6      10.518   9.126  51.132  0.00  0.00    -0.002 A 
ATOM     65  CD1 TRP A   6      10.093  10.117  51.967  0.00  0.00    +0.068 A 
ATOM     66  NE1 TRP A   6      10.971  10.261  53.018  0.00  0.00    -0.352 N 
ATOM     67  HE1 TRP A   6      10.873  10.945  53.796  0.00  0.00    +0.166 HD
ATOM     68  CE2 TRP A   6      11.993   9.362  52.877  0.00  0.00    +0.056 A 
ATOM     69  CZ2 TRP A   6      13.111   9.123  53.696  0.00  0.00    +0.017 A 
ATOM     70  CH2 TRP A   6      13.968   8.130  53.319  0.00  0.00    +0.001 A 
ATOM     71  CZ3 TRP A   6      13.745   7.372  52.150  0.00  0.00    +0.000 A 
ATOM     72  CE3 TRP A   6      12.641   7.611  51.339  0.00  0.00    +0.001 A 
ATOM     73  CD2 TRP A   6      11.742   8.620  51.703  0.00  0.00    +0.013 A 
ENDBRANCH  63  64
ENDBRANCH  46  63
ENDBRANCH  44  46
ENDBRANCH  41  42
BRANCH  41  74
ATOM     74  CB  ASN A   5       7.020   4.914  46.860  0.00  0.00    +0.114 C 
BRANCH  74  75
ATOM     75  CG  ASN A   5       6.545   4.752  45.431  0.00  0.00    +0.222 C 
ATOM     76  ND2 ASN A   5       5.620   3.819  45.231  0.00  0.00    -0.329 N 
ATOM     77 HD21 ASN A   5       5.241   3.282  46.037  0.00  0.00    +0.145 HD
ATOM     78 HD22 ASN A   5       5.275   3.626  44.269  0.00  0.00    +0.145 HD
ATOM     79  OD1 ASN A   5       7.038   5.429  44.507  0.00  0.00    -0.275 OA
ENDBRANCH  74  75
ENDBRANCH  41  74
ENDBRANCH   2  41
TORSDOF 28
REMARK  Name = ../refined-set-2016/4qll/4qll_pocket.pdb
REMARK  277 active torsions:
REMARK  status: ('A' for Active; 'I' for Inactive)
REMARK    1  A    between atoms: _1  and  _3
REMARK    2  A    between atoms: _3  and  _4
REMARK    3  A    between atoms: _3  and  _6
REMARK    4  A    between atoms: _9  and  _11
REMARK    5  A    between atoms: _11  and  _12
REMARK    6  A    between atoms: _11  and  _14
REMARK    7  A    between atoms: _14  and  _15
REMARK    8  A    between atoms: _18  and  _20
REMARK    9  A    between atoms: _20  and  _21
REMARK   10  A    between atoms: _20  and  _23
REMARK   11  A    between atoms: _23  and  _24
REMARK   12  A    between atoms: _26  and  _28
REMARK   13  A    between atoms: _28  and  _29
REMARK   14  A    between atoms: _28  and  _31
REMARK   15  A    between atoms: _31  and  _32
REMARK   16  A    between atoms: _32  and  _33
REMARK   17  A    between atoms: _38  and  _40
REMARK   18  A    between atoms: _40  and  _41
REMARK   19  A    between atoms: _40  and  _43
REMARK   20  A    between atoms: _43  and  _44
REMARK   21  A    between atoms: _44  and  _45
REMARK   22  A    between atoms: _45  and  _46
REMARK   23  A    between atoms: _55  and  _57
REMARK   24  A    between atoms: _57  and  _58
REMARK   25  A    between atoms: _57  and  _60
REMARK   26  A    between atoms: _60  and  _61
REMARK   27  A    between atoms: _66  and  _68
REMARK   28  A    between atoms: _68  and  _69
REMARK   29  A    between atoms: _68  and  _71
REMARK   30  A    between atoms: _71  and  _72
REMARK   31  A    between atoms: _77  and  _78
REMARK   32  A    between atoms: _80  and  _82
REMARK   33  A    between atoms: _82  and  _83
REMARK   34  A    between atoms: _82  and  _85
REMARK   35  A    between atoms: _85  and  _86
REMARK   36  A    between atoms: _91  and  _93
REMARK   37  A    between atoms: _93  and  _94
REMARK   38  A    between atoms: _93  and  _96
REMARK   39  A    between atoms: _96  and  _97
REMARK   40  A    between atoms: _97  and  _98
REMARK   41  A    between atoms: _103  and  _105
REMARK   42  A    between atoms: _105  and  _106
REMARK   43  A    between atoms: _105  and  _108
REMARK   44  A    between atoms: _108  and  _109
REMARK   45  A    between atoms: _109  and  _110
REMARK   46  A    between atoms: _110  and  _111
REMARK   47  A    between atoms: _120  and  _122
REMARK   48  A    between atoms: _122  and  _123
REMARK   49  A    between atoms: _122  and  _125
REMARK   50  A    between atoms: _125  and  _126
REMARK   51  A    between atoms: _129  and  _131
REMARK   52  A    between atoms: _131  and  _132
REMARK   53  A    between atoms: _131  and  _134
REMARK   54  A    between atoms: _134  and  _135
REMARK   55  A    between atoms: _138  and  _140
REMARK   56  A    between atoms: _140  and  _141
REMARK   57  A    between atoms: _140  and  _143
REMARK   58  A    between atoms: _143  and  _144
REMARK   59  A    between atoms: _147  and  _149
REMARK   60  A    between atoms: _149  and  _150
REMARK   61  A    between atoms: _149  and  _152
REMARK   62  A    between atoms: _152  and  _153
REMARK   63  A    between atoms: _156  and  _158
REMARK   64  A    between atoms: _158  and  _159
REMARK   65  A    between atoms: _162  and  _164
REMARK   66  A    between atoms: _164  and  _165
REMARK   67  A    between atoms: _164  and  _167
REMARK   68  A    between atoms: _167  and  _168
REMARK   69  A    between atoms: _171  and  _173
REMARK   70  A    between atoms: _173  and  _174
REMARK   71  A    between atoms: _173  and  _176
REMARK   72  A    between atoms: _176  and  _177
REMARK   73  A    between atoms: _182  and  _184
REMARK   74  A    between atoms: _184  and  _185
REMARK   75  A    between atoms: _184  and  _187
REMARK   76  A    between atoms: _190  and  _192
REMARK   77  A    between atoms: _192  and  _193
REMARK   78  A    between atoms: _192  and  _195
REMARK   79  A    between atoms: _195  and  _196
REMARK   80  A    between atoms: _199  and  _201
REMARK   81  A    between atoms: _201  and  _202
REMARK   82  A    between atoms: _201  and  _204
REMARK   83  A    between atoms: _204  and  _205
REMARK   84  A    between atoms: _208  and  _210
REMARK   85  A    between atoms: _210  and  _211
REMARK   86  A    between atoms: _210  and  _213
REMARK   87  A    between atoms: _213  and  _214
REMARK   88  A    between atoms: _220  and  _222
REMARK   89  A    between atoms: _222  and  _223
REMARK   90  A    between atoms: _222  and  _225
REMARK   91  A    between atoms: _225  and  _226
REMARK   92  A    between atoms: _231  and  _233
REMARK   93  A    between atoms: _233  and  _234
REMARK   94  A    between atoms: _233  and  _236
REMARK   95  A    between atoms: _236  and  _237
REMARK   96  A    between atoms: _247  and  _249
REMARK   97  A    between atoms: _249  and  _250
REMARK   98  A    between atoms: _249  and  _252
REMARK   99  A    between atoms: _252  and  _253
REMARK  100  A    between atoms: _258  and  _259
REMARK  101  A    between atoms: _261  and  _263
REMARK  102  A    between atoms: _263  and  _264
REMARK  103  A    between atoms: _267  and  _269
REMARK  104  A    between atoms: _269  and  _270
REMARK  105  A    between atoms: _269  and  _272
REMARK  106  A    between atoms: _272  and  _273
REMARK  107  A    between atoms: _279  and  _281
REMARK  108  A    between atoms: _281  and  _282
REMARK  109  A    between atoms: _281  and  _284
REMARK  110  A    between atoms: _284  and  _285
REMARK  111  A    between atoms: _290  and  _292
REMARK  112  A    between atoms: _292  and  _293
REMARK  113  A    between atoms: _292  and  _295
REMARK  114  A    between atoms: _295  and  _296
REMARK  115  A    between atoms: _301  and  _303
REMARK  116  A    between atoms: _303  and  _304
REMARK  117  A    between atoms: _303  and  _306
REMARK  118  A    between atoms: _306  and  _307
REMARK  119  A    between atoms: _307  and  _308
REMARK  120  A    between atoms: _313  and  _315
REMARK  121  A    between atoms: _315  and  _316
REMARK  122  A    between atoms: _315  and  _318
REMARK  123  A    between atoms: _318  and  _319
REMARK  124  A    between atoms: _324  and  _325
REMARK  125  A    between atoms: _327  and  _329
REMARK  126  A    between atoms: _329  and  _330
REMARK  127  A    between atoms: _329  and  _332
REMARK  128  A    between atoms: _332  and  _333
REMARK  129  A    between atoms: _336  and  _338
REMARK  130  A    between atoms: _338  and  _339
REMARK  131  A    between atoms: _342  and  _344
REMARK  132  A    between atoms: _344  and  _345
REMARK  133  A    between atoms: _344  and  _347
REMARK  134  A    between atoms: _347  and  _348
REMARK  135  A    between atoms: _350  and  _352
REMARK  136  A    between atoms: _352  and  _353
REMARK  137  A    between atoms: _352  and  _355
REMARK  138  A    between atoms: _355  and  _356
REMARK  139  A    between atoms: _361  and  _362
REMARK  140  A    between atoms: _364  and  _366
REMARK  141  A    between atoms: _366  and  _367
REMARK  142  A    between atoms: _366  and  _369
REMARK  143  A    between atoms: _369  and  _370
REMARK  144  A    between atoms: _370  and  _371
REMARK  145  A    between atoms: _373  and  _375
REMARK  146  A    between atoms: _375  and  _376
REMARK  147  A    between atoms: _375  and  _378
REMARK  148  A    between atoms: _378  and  _379
REMARK  149  A    between atoms: _379  and  _380
REMARK  150  A    between atoms: _380  and  _381
REMARK  151  A    between atoms: _381  and  _382
REMARK  152  A    between atoms: _386  and  _388
REMARK  153  A    between atoms: _388  and  _389
REMARK  154  A    between atoms: _388  and  _391
REMARK  155  A    between atoms: _391  and  _392
REMARK  156  A    between atoms: _397  and  _398
REMARK  157  A    between atoms: _400  and  _402
REMARK  158  A    between atoms: _402  and  _403
REMARK  159  A    between atoms: _402  and  _405
REMARK  160  A    between atoms: _405  and  _406
REMARK  161  A    between atoms: _408  and  _410
REMARK  162  A    between atoms: _410  and  _411
REMARK  163  A    between atoms: _414  and  _416
REMARK  164  A    between atoms: _416  and  _417
REMARK  165  A    between atoms: _416  and  _419
REMARK  166  A    between atoms: _419  and  _420
REMARK  167  A    between atoms: _423  and  _425
REMARK  168  A    between atoms: _425  and  _426
REMARK  169  A    between atoms: _425  and  _428
REMARK  170  A    between atoms: _428  and  _429
REMARK  171  A    between atoms: _439  and  _441
REMARK  172  A    between atoms: _441  and  _442
REMARK  173  A    between atoms: _441  and  _444
REMARK  174  A    between atoms: _444  and  _445
REMARK  175  A    between atoms: _445  and  _446
REMARK  176  A    between atoms: _451  and  _453
REMARK  177  A    between atoms: _453  and  _454
REMARK  178  A    between atoms: _453  and  _456
REMARK  179  A    between atoms: _459  and  _461
REMARK  180  A    between atoms: _461  and  _462
REMARK  181  A    between atoms: _461  and  _464
REMARK  182  A    between atoms: _464  and  _465
REMARK  183  A    between atoms: _468  and  _470
REMARK  184  A    between atoms: _470  and  _471
REMARK  185  A    between atoms: _474  and  _476
REMARK  186  A    between atoms: _476  and  _477
REMARK  187  A    between atoms: _476  and  _479
REMARK  188  A    between atoms: _482  and  _484
REMARK  189  A    between atoms: _484  and  _485
REMARK  190  A    between atoms: _484  and  _487
REMARK  191  A    between atoms: _487  and  _488
REMARK  192  A    between atoms: _494  and  _496
REMARK  193  A    between atoms: _496  and  _497
REMARK  194  A    between atoms: _496  and  _499
REMARK  195  A    between atoms: _499  and  _500
REMARK  196  A    between atoms: _502  and  _504
REMARK  197  A    between atoms: _504  and  _505
REMARK  198  A    between atoms: _504  and  _507
REMARK  199  A    between atoms: _507  and  _508
REMARK  200  A    between atoms: _513  and  _515
REMARK  201  A    between atoms: _515  and  _516
REMARK  202  A    between atoms: _515  and  _518
REMARK  203  A    between atoms: _518  and  _519
REMARK  204  A    between atoms: _529  and  _531
REMARK  205  A    between atoms: _531  and  _532
REMARK  206  A    between atoms: _531  and  _534
REMARK  207  A    between atoms: _534  and  _535
REMARK  208  A    between atoms: _538  and  _540
REMARK  209  A    between atoms: _540  and  _541
REMARK  210  A    between atoms: _540  and  _543
REMARK  211  A    between atoms: _543  and  _544
REMARK  212  A    between atoms: _549  and  _550
REMARK  213  A    between atoms: _552  and  _554
REMARK  214  A    between atoms: _554  and  _555
REMARK  215  A    between atoms: _554  and  _557
REMARK  216  A    between atoms: _557  and  _558
REMARK  217  A    between atoms: _561  and  _563
REMARK  218  A    between atoms: _563  and  _564
REMARK  219  A    between atoms: _563  and  _566
REMARK  220  A    between atoms: _566  and  _567
REMARK  221  A    between atoms: _567  and  _568
REMARK  222  A    between atoms: _571  and  _573
REMARK  223  A    between atoms: _573  and  _574
REMARK  224  A    between atoms: _573  and  _576
REMARK  225  A    between atoms: _576  and  _577
REMARK  226  A    between atoms: _582  and  _584
REMARK  227  A    between atoms: _584  and  _585
REMARK  228  A    between atoms: _587  and  _589
REMARK  229  A    between atoms: _589  and  _590
REMARK  230  A    between atoms: _589  and  _592
REMARK  231  A    between atoms: _592  and  _593
REMARK  232  A    between atoms: _593  and  _594
REMARK  233  A    between atoms: _596  and  _598
REMARK  234  A    between atoms: _598  and  _599
REMARK  235  A    between atoms: _598  and  _601
REMARK  236  A    between atoms: _601  and  _602
REMARK  237  A    between atoms: _605  and  _607
REMARK  238  A    between atoms: _607  and  _608
REMARK  239  A    between atoms: _607  and  _610
REMARK  240  A    between atoms: _610  and  _611
REMARK  241  A    between atoms: _621  and  _623
REMARK  242  A    between atoms: _623  and  _624
REMARK  243  A    between atoms: _623  and  _626
REMARK  244  A    between atoms: _626  and  _627
REMARK  245  A    between atoms: _629  and  _631
REMARK  246  A    between atoms: _631  and  _632
REMARK  247  A    between atoms: _631  and  _634
REMARK  248  A    between atoms: _634  and  _635
REMARK  249  A    between atoms: _640  and  _642
REMARK  250  A    between atoms: _642  and  _643
REMARK  251  A    between atoms: _642  and  _645
REMARK  252  A    between atoms: _645  and  _646
REMARK  253  A    between atoms: _652  and  _654
REMARK  254  A    between atoms: _654  and  _655
REMARK  255  A    between atoms: _654  and  _657
REMARK  256  A    between atoms: _657  and  _658
REMARK  257  A    between atoms: _658  and  _659
REMARK  258  A    between atoms: _662  and  _664
REMARK  259  A    between atoms: _664  and  _665
REMARK  260  A    between atoms: _664  and  _667
REMARK  261  A    between atoms: _667  and  _668
REMARK  262  A    between atoms: _678  and  _680
REMARK  263  A    between atoms: _680  and  _681
REMARK  264  A    between atoms: _680  and  _683
REMARK  265  A    between atoms: _683  and  _684
REMARK  266  A    between atoms: _687  and  _689
REMARK  267  A    between atoms: _689  and  _690
REMARK  268  A    between atoms: _689  and  _692
REMARK  269  A    between atoms: _692  and  _693
REMARK  270  A    between atoms: _695  and  _697
REMARK  271  A    between atoms: _697  and  _698
REMARK  272  A    between atoms: _697  and  _700
REMARK  273  A    between atoms: _700  and  _701
REMARK  274  A    between atoms: _703  and  _705
REMARK  275  A    between atoms: _705  and  _706
REMARK  276  A    between atoms: _705  and  _708
REMARK  277  A    between atoms: _708  and  _709
REMARK                            x       y       z     vdW  Elec       q    Type
REMARK                         _______ _______ _______ _____ _____    ______ ____
ROOT
ATOM      1  CA  ALA A   1       9.064  -0.266  55.285  0.00  0.00    +0.133 C 
ATOM      2  CB  ALA A   1       8.067   0.874  55.271  0.00  0.00    +0.027 C 
ENDROOT
BRANCH   1   3
ATOM      3  N   ALA A   1       9.709  -0.366  56.592  0.00  0.00    -0.239 NA
ATOM      4  H   ALA A   1       9.517   0.363  57.309  0.00  0.00    +0.142 HD
ENDBRANCH   1   3
BRANCH   1   5
ATOM      5  C   ALA A   1      10.114  -0.091  54.170  0.00  0.00    +0.224 C 
ATOM      6  O   ALA A   1      10.022  -0.738  53.143  0.00  0.00    -0.287 OA
ENDBRANCH   1   5
TORSDOF 2
REMARK  Name = ../refined-set-2016/4qll/4qll_pocket.pdb
REMARK  277 active torsions:
REMARK  status: ('A' for Active; 'I' for Inactive)
REMARK    1  A    between atoms: _1  and  _3
REMARK    2  A    between atoms: _3  and  _4
REMARK    3  A    between atoms: _3  and  _6
REMARK    4  A    between atoms: _9  and  _11
REMARK    5  A    between atoms: _11  and  _12
REMARK    6  A    between atoms: _11  and  _14
REMARK    7  A    between atoms: _14  and  _15
REMARK    8  A    between atoms: _18  and  _20
REMARK    9  A    between atoms: _20  and  _21
REMARK   10  A    between atoms: _20  and  _23
REMARK   11  A    between atoms: _23  and  _24
REMARK   12  A    between atoms: _26  and  _28
REMARK   13  A    between atoms: _28  and  _29
REMARK   14  A    between atoms: _28  and  _31
REMARK   15  A    between atoms: _31  and  _32
REMARK   16  A    between atoms: _32  and  _33
REMARK   17  A    between atoms: _38  and  _40
REMARK   18  A    between atoms: _40  and  _41
REMARK   19  A    between atoms: _40  and  _43
REMARK   20  A    between atoms: _43  and  _44
REMARK   21  A    between atoms: _44  and  _45
REMARK   22  A    between atoms: _45  and  _46
REMARK   23  A    between atoms: _55  and  _57
REMARK   24  A    between atoms: _57  and  _58
REMARK   25  A    between atoms: _57  and  _60
REMARK   26  A    between atoms: _60  and  _61
REMARK   27  A    between atoms: _66  and  _68
REMARK   28  A    between atoms: _68  and  _69
REMARK   29  A    between atoms: _68  and  _71
REMARK   30  A    between atoms: _71  and  _72
REMARK   31  A    between atoms: _77  and  _78
REMARK   32  A    between atoms: _80  and  _82
REMARK   33  A    between atoms: _82  and  _83
REMARK   34  A    between atoms: _82  and  _85
REMARK   35  A    between atoms: _85  and  _86
REMARK   36  A    between atoms: _91  and  _93
REMARK   37  A    between atoms: _93  and  _94
REMARK   38  A    between atoms: _93  and  _96
REMARK   39  A    between atoms: _96  and  _97
REMARK   40  A    between atoms: _97  and  _98
REMARK   41  A    between atoms: _103  and  _105
REMARK   42  A    between atoms: _105  and  _106
REMARK   43  A    between atoms: _105  and  _108
REMARK   44  A    between atoms: _108  and  _109
REMARK   45  A    between atoms: _109  and  _110
REMARK   46  A    between atoms: _110  and  _111
REMARK   47  A    between atoms: _120  and  _122
REMARK   48  A    between atoms: _122  and  _123
REMARK   49  A    between atoms: _122  and  _125
REMARK   50  A    between atoms: _125  and  _126
REMARK   51  A    between atoms: _129  and  _131
REMARK   52  A    between atoms: _131  and  _132
REMARK   53  A    between atoms: _131  and  _134
REMARK   54  A    between atoms: _134  and  _135
REMARK   55  A    between atoms: _138  and  _140
REMARK   56  A    between atoms: _140  and  _141
REMARK   57  A    between atoms: _140  and  _143
REMARK   58  A    between atoms: _143  and  _144
REMARK   59  A    between atoms: _147  and  _149
REMARK   60  A    between atoms: _149  and  _150
REMARK   61  A    between atoms: _149  and  _152
REMARK   62  A    between atoms: _152  and  _153
REMARK   63  A    between atoms: _156  and  _158
REMARK   64  A    between atoms: _158  and  _159
REMARK   65  A    between atoms: _162  and  _164
REMARK   66  A    between atoms: _164  and  _165
REMARK   67  A    between atoms: _164  and  _167
REMARK   68  A    between atoms: _167  and  _168
REMARK   69  A    between atoms: _171  and  _173
REMARK   70  A    between atoms: _173  and  _174
REMARK   71  A    between atoms: _173  and  _176
REMARK   72  A    between atoms: _176  and  _177
REMARK   73  A    between atoms: _182  and  _184
REMARK   74  A    between atoms: _184  and  _185
REMARK   75  A    between atoms: _184  and  _187
REMARK   76  A    between atoms: _190  and  _192
REMARK   77  A    between atoms: _192  and  _193
REMARK   78  A    between atoms: _192  and  _195
REMARK   79  A    between atoms: _195  and  _196
REMARK   80  A    between atoms: _199  and  _201
REMARK   81  A    between atoms: _201  and  _202
REMARK   82  A    between atoms: _201  and  _204
REMARK   83  A    between atoms: _204  and  _205
REMARK   84  A    between atoms: _208  and  _210
REMARK   85  A    between atoms: _210  and  _211
REMARK   86  A    between atoms: _210  and  _213
REMARK   87  A    between atoms: _213  and  _214
REMARK   88  A    between atoms: _220  and  _222
REMARK   89  A    between atoms: _222  and  _223
REMARK   90  A    between atoms: _222  and  _225
REMARK   91  A    between atoms: _225  and  _226
REMARK   92  A    between atoms: _231  and  _233
REMARK   93  A    between atoms: _233  and  _234
REMARK   94  A    between atoms: _233  and  _236
REMARK   95  A    between atoms: _236  and  _237
REMARK   96  A    between atoms: _247  and  _249
REMARK   97  A    between atoms: _249  and  _250
REMARK   98  A    between atoms: _249  and  _252
REMARK   99  A    between atoms: _252  and  _253
REMARK  100  A    between atoms: _258  and  _259
REMARK  101  A    between atoms: _261  and  _263
REMARK  102  A    between atoms: _263  and  _264
REMARK  103  A    between atoms: _267  and  _269
REMARK  104  A    between atoms: _269  and  _270
REMARK  105  A    between atoms: _269  and  _272
REMARK  106  A    between atoms: _272  and  _273
REMARK  107  A    between atoms: _279  and  _281
REMARK  108  A    between atoms: _281  and  _282
REMARK  109  A    between atoms: _281  and  _284
REMARK  110  A    between atoms: _284  and  _285
REMARK  111  A    between atoms: _290  and  _292
REMARK  112  A    between atoms: _292  and  _293
REMARK  113  A    between atoms: _292  and  _295
REMARK  114  A    between atoms: _295  and  _296
REMARK  115  A    between atoms: _301  and  _303
REMARK  116  A    between atoms: _303  and  _304
REMARK  117  A    between atoms: _303  and  _306
REMARK  118  A    between atoms: _306  and  _307
REMARK  119  A    between atoms: _307  and  _308
REMARK  120  A    between atoms: _313  and  _315
REMARK  121  A    between atoms: _315  and  _316
REMARK  122  A    between atoms: _315  and  _318
REMARK  123  A    between atoms: _318  and  _319
REMARK  124  A    between atoms: _324  and  _325
REMARK  125  A    between atoms: _327  and  _329
REMARK  126  A    between atoms: _329  and  _330
REMARK  127  A    between atoms: _329  and  _332
REMARK  128  A    between atoms: _332  and  _333
REMARK  129  A    between atoms: _336  and  _338
REMARK  130  A    between atoms: _338  and  _339
REMARK  131  A    between atoms: _342  and  _344
REMARK  132  A    between atoms: _344  and  _345
REMARK  133  A    between atoms: _344  and  _347
REMARK  134  A    between atoms: _347  and  _348
REMARK  135  A    between atoms: _350  and  _352
REMARK  136  A    between atoms: _352  and  _353
REMARK  137  A    between atoms: _352  and  _355
REMARK  138  A    between atoms: _355  and  _356
REMARK  139  A    between atoms: _361  and  _362
REMARK  140  A    between atoms: _364  and  _366
REMARK  141  A    between atoms: _366  and  _367
REMARK  142  A    between atoms: _366  and  _369
REMARK  143  A    between atoms: _369  and  _370
REMARK  144  A    between atoms: _370  and  _371
REMARK  145  A    between atoms: _373  and  _375
REMARK  146  A    between atoms: _375  and  _376
REMARK  147  A    between atoms: _375  and  _378
REMARK  148  A    between atoms: _378  and  _379
REMARK  149  A    between atoms: _379  and  _380
REMARK  150  A    between atoms: _380  and  _381
REMARK  151  A    between atoms: _381  and  _382
REMARK  152  A    between atoms: _386  and  _388
REMARK  153  A    between atoms: _388  and  _389
REMARK  154  A    between atoms: _388  and  _391
REMARK  155  A    between atoms: _391  and  _392
REMARK  156  A    between atoms: _397  and  _398
REMARK  157  A    between atoms: _400  and  _402
REMARK  158  A    between atoms: _402  and  _403
REMARK  159  A    between atoms: _402  and  _405
REMARK  160  A    between atoms: _405  and  _406
REMARK  161  A    between atoms: _408  and  _410
REMARK  162  A    between atoms: _410  and  _411
REMARK  163  A    between atoms: _414  and  _416
REMARK  164  A    between atoms: _416  and  _417
REMARK  165  A    between atoms: _416  and  _419
REMARK  166  A    between atoms: _419  and  _420
REMARK  167  A    between atoms: _423  and  _425
REMARK  168  A    between atoms: _425  and  _426
REMARK  169  A    between atoms: _425  and  _428
REMARK  170  A    between atoms: _428  and  _429
REMARK  171  A    between atoms: _439  and  _441
REMARK  172  A    between atoms: _441  and  _442
REMARK  173  A    between atoms: _441  and  _444
REMARK  174  A    between atoms: _444  and  _445
REMARK  175  A    between atoms: _445  and  _446
REMARK  176  A    between atoms: _451  and  _453
REMARK  177  A    between atoms: _453  and  _454
REMARK  178  A    between atoms: _453  and  _456
REMARK  179  A    between atoms: _459  and  _461
REMARK  180  A    between atoms: _461  and  _462
REMARK  181  A    between atoms: _461  and  _464
REMARK  182  A    between atoms: _464  and  _465
REMARK  183  A    between atoms: _468  and  _470
REMARK  184  A    between atoms: _470  and  _471
REMARK  185  A    between atoms: _474  and  _476
REMARK  186  A    between atoms: _476  and  _477
REMARK  187  A    between atoms: _476  and  _479
REMARK  188  A    between atoms: _482  and  _484
REMARK  189  A    between atoms: _484  and  _485
REMARK  190  A    between atoms: _484  and  _487
REMARK  191  A    between atoms: _487  and  _488
REMARK  192  A    between atoms: _494  and  _496
REMARK  193  A    between atoms: _496  and  _497
REMARK  194  A    between atoms: _496  and  _499
REMARK  195  A    between atoms: _499  and  _500
REMARK  196  A    between atoms: _502  and  _504
REMARK  197  A    between atoms: _504  and  _505
REMARK  198  A    between atoms: _504  and  _507
REMARK  199  A    between atoms: _507  and  _508
REMARK  200  A    between atoms: _513  and  _515
REMARK  201  A    between atoms: _515  and  _516
REMARK  202  A    between atoms: _515  and  _518
REMARK  203  A    between atoms: _518  and  _519
REMARK  204  A    between atoms: _529  and  _531
REMARK  205  A    between atoms: _531  and  _532
REMARK  206  A    between atoms: _531  and  _534
REMARK  207  A    between atoms: _534  and  _535
REMARK  208  A    between atoms: _538  and  _540
REMARK  209  A    between atoms: _540  and  _541
REMARK  210  A    between atoms: _540  and  _543
REMARK  211  A    between atoms: _543  and  _544
REMARK  212  A    between atoms: _549  and  _550
REMARK  213  A    between atoms: _552  and  _554
REMARK  214  A    between atoms: _554  and  _555
REMARK  215  A    between atoms: _554  and  _557
REMARK  216  A    between atoms: _557  and  _558
REMARK  217  A    between atoms: _561  and  _563
REMARK  218  A    between atoms: _563  and  _564
REMARK  219  A    between atoms: _563  and  _566
REMARK  220  A    between atoms: _566  and  _567
REMARK  221  A    between atoms: _567  and  _568
REMARK  222  A    between atoms: _571  and  _573
REMARK  223  A    between atoms: _573  and  _574
REMARK  224  A    between atoms: _573  and  _576
REMARK  225  A    between atoms: _576  and  _577
REMARK  226  A    between atoms: _582  and  _584
REMARK  227  A    between atoms: _584  and  _585
REMARK  228  A    between atoms: _587  and  _589
REMARK  229  A    between atoms: _589  and  _590
REMARK  230  A    between atoms: _589  and  _592
REMARK  231  A    between atoms: _592  and  _593
REMARK  232  A    between atoms: _593  and  _594
REMARK  233  A    between atoms: _596  and  _598
REMARK  234  A    between atoms: _598  and  _599
REMARK  235  A    between atoms: _598  and  _601
REMARK  236  A    between atoms: _601  and  _602
REMARK  237  A    between atoms: _605  and  _607
REMARK  238  A    between atoms: _607  and  _608
REMARK  239  A    between atoms: _607  and  _610
REMARK  240  A    between atoms: _610  and  _611
REMARK  241  A    between atoms: _621  and  _623
REMARK  242  A    between atoms: _623  and  _624
REMARK  243  A    between atoms: _623  and  _626
REMARK  244  A    between atoms: _626  and  _627
REMARK  245  A    between atoms: _629  and  _631
REMARK  246  A    between atoms: _631  and  _632
REMARK  247  A    between atoms: _631  and  _634
REMARK  248  A    between atoms: _634  and  _635
REMARK  249  A    between atoms: _640  and  _642
REMARK  250  A    between atoms: _642  and  _643
REMARK  251  A    between atoms: _642  and  _645
REMARK  252  A    between atoms: _645  and  _646
REMARK  253  A    between atoms: _652  and  _654
REMARK  254  A    between atoms: _654  and  _655
REMARK  255  A    between atoms: _654  and  _657
REMARK  256  A    between atoms: _657  and  _658
REMARK  257  A    between atoms: _658  and  _659
REMARK  258  A    between atoms: _662  and  _664
REMARK  259  A    between atoms: _664  and  _665
REMARK  260  A    between atoms: _664  and  _667
REMARK  261  A    between atoms: _667  and  _668
REMARK  262  A    between atoms: _678  and  _680
REMARK  263  A    between atoms: _680  and  _681
REMARK  264  A    between atoms: _680  and  _683
REMARK  265  A    between atoms: _683  and  _684
REMARK  266  A    between atoms: _687  and  _689
REMARK  267  A    between atoms: _689  and  _690
REMARK  268  A    between atoms: _689  and  _692
REMARK  269  A    between atoms: _692  and  _693
REMARK  270  A    between atoms: _695  and  _697
REMARK  271  A    between atoms: _697  and  _698
REMARK  272  A    between atoms: _697  and  _700
REMARK  273  A    between atoms: _700  and  _701
REMARK  274  A    between atoms: _703  and  _705
REMARK  275  A    between atoms: _705  and  _706
REMARK  276  A    between atoms: _705  and  _708
REMARK  277  A    between atoms: _708  and  _709
REMARK                            x       y       z     vdW  Elec       q    Type
REMARK                         _______ _______ _______ _____ _____    ______ ____
ROOT
ATOM      1  C   PHE A   1      10.603  -4.087  51.476  0.00  0.00    +0.239 C 
ATOM      2  N   HIS A   2      10.759  -2.799  51.194  0.00  0.00    -0.298 N 
ATOM      3  H   HIS A   2      11.127  -2.158  51.926  0.00  0.00    +0.150 HD
ATOM      4  O   PHE A   1      10.192  -4.906  50.652  0.00  0.00    -0.274 OA
ENDROOT
BRANCH   1   5
ATOM      5  CA  PHE A   1      10.920  -4.520  52.915  0.00  0.00    +0.149 C 
BRANCH   5   6
ATOM      6  N   PHE A   1      11.791  -3.544  53.593  0.00  0.00    -0.238 NA
ATOM      7  H   PHE A   1      11.384  -2.912  54.312  0.00  0.00    +0.142 HD
ENDBRANCH   5   6
BRANCH   5   8
ATOM      8  CB  PHE A   1       9.606  -4.716  53.683  0.00  0.00    +0.053 C 
BRANCH   8   9
ATOM      9  CG  PHE A   1       9.656  -5.804  54.723  0.00  0.00    -0.020 A 
ATOM     10  CD2 PHE A   1      10.120  -5.543  56.007  0.00  0.00    -0.004 A 
ATOM     11  CE2 PHE A   1      10.168  -6.543  56.965  0.00  0.00    -0.000 A 
ATOM     12  CZ  PHE A   1       9.715  -7.818  56.658  0.00  0.00    -0.000 A 
ATOM     13  CE1 PHE A   1       9.238  -8.097  55.389  0.00  0.00    -0.000 A 
ATOM     14  CD1 PHE A   1       9.216  -7.091  54.424  0.00  0.00    -0.004 A 
ENDBRANCH   8   9
ENDBRANCH   5   8
ENDBRANCH   1   5
BRANCH   2  15
ATOM     15  CA  HIS A   2      10.421  -2.260  49.867  0.00  0.00    +0.143 C 
BRANCH  15  16
ATOM     16  C   HIS A   2      11.627  -2.297  48.923  0.00  0.00    +0.227 C 
ATOM     17  O   HIS A   2      11.592  -2.965  47.896  0.00  0.00    -0.286 OA
ENDBRANCH  15  16
BRANCH  15  18
ATOM     18  CB  HIS A   2       9.875  -0.834  49.973  0.00  0.00    +0.075 C 
BRANCH  18  19
ATOM     19  CG  HIS A   2       9.258  -0.325  48.704  0.00  0.00    +0.082 A 
ATOM     20  ND1 HIS A   2       7.967   0.157  48.645  0.00  0.00    -0.227 NA
ATOM     21  CE1 HIS A   2       7.683   0.510  47.404  0.00  0.00    +0.199 A 
ATOM     22  NE2 HIS A   2       8.742   0.275  46.652  0.00  0.00    -0.221 NA
ATOM     23  CD2 HIS A   2       9.740  -0.256  47.437  0.00  0.00    +0.115 A 
ENDBRANCH  18  19
ENDBRANCH  15  18
ENDBRANCH   2  15
TORSDOF 8
REMARK  Name = ../refined-set-2016/4qll/4qll_pocket.pdb
REMARK  277 active torsions:
REMARK  status: ('A' for Active; 'I' for Inactive)
REMARK    1  A    between atoms: _1  and  _3
REMARK    2  A    between atoms: _3  and  _4
REMARK    3  A    between atoms: _3  and  _6
REMARK    4  A    between atoms: _9  and  _11
REMARK    5  A    between atoms: _11  and  _12
REMARK    6  A    between atoms: _11  and  _14
REMARK    7  A    between atoms: _14  and  _15
REMARK    8  A    between atoms: _18  and  _20
REMARK    9  A    between atoms: _20  and  _21
REMARK   10  A    between atoms: _20  and  _23
REMARK   11  A    between atoms: _23  and  _24
REMARK   12  A    between atoms: _26  and  _28
REMARK   13  A    between atoms: _28  and  _29
REMARK   14  A    between atoms: _28  and  _31
REMARK   15  A    between atoms: _31  and  _32
REMARK   16  A    between atoms: _32  and  _33
REMARK   17  A    between atoms: _38  and  _40
REMARK   18  A    between atoms: _40  and  _41
REMARK   19  A    between atoms: _40  and  _43
REMARK   20  A    between atoms: _43  and  _44
REMARK   21  A    between atoms: _44  and  _45
REMARK   22  A    between atoms: _45  and  _46
REMARK   23  A    between atoms: _55  and  _57
REMARK   24  A    between atoms: _57  and  _58
REMARK   25  A    between atoms: _57  and  _60
REMARK   26  A    between atoms: _60  and  _61
REMARK   27  A    between atoms: _66  and  _68
REMARK   28  A    between atoms: _68  and  _69
REMARK   29  A    between atoms: _68  and  _71
REMARK   30  A    between atoms: _71  and  _72
REMARK   31  A    between atoms: _77  and  _78
REMARK   32  A    between atoms: _80  and  _82
REMARK   33  A    between atoms: _82  and  _83
REMARK   34  A    between atoms: _82  and  _85
REMARK   35  A    between atoms: _85  and  _86
REMARK   36  A    between atoms: _91  and  _93
REMARK   37  A    between atoms: _93  and  _94
REMARK   38  A    between atoms: _93  and  _96
REMARK   39  A    between atoms: _96  and  _97
REMARK   40  A    between atoms: _97  and  _98
REMARK   41  A    between atoms: _103  and  _105
REMARK   42  A    between atoms: _105  and  _106
REMARK   43  A    between atoms: _105  and  _108
REMARK   44  A    between atoms: _108  and  _109
REMARK   45  A    between atoms: _109  and  _110
REMARK   46  A    between atoms: _110  and  _111
REMARK   47  A    between atoms: _120  and  _122
REMARK   48  A    between atoms: _122  and  _123
REMARK   49  A    between atoms: _122  and  _125
REMARK   50  A    between atoms: _125  and  _126
REMARK   51  A    between atoms: _129  and  _131
REMARK   52  A    between atoms: _131  and  _132
REMARK   53  A    between atoms: _131  and  _134
REMARK   54  A    between atoms: _134  and  _135
REMARK   55  A    between atoms: _138  and  _140
REMARK   56  A    between atoms: _140  and  _141
REMARK   57  A    between atoms: _140  and  _143
REMARK   58  A    between atoms: _143  and  _144
REMARK   59  A    between atoms: _147  and  _149
REMARK   60  A    between atoms: _149  and  _150
REMARK   61  A    between atoms: _149  and  _152
REMARK   62  A    between atoms: _152  and  _153
REMARK   63  A    between atoms: _156  and  _158
REMARK   64  A    between atoms: _158  and  _159
REMARK   65  A    between atoms: _162  and  _164
REMARK   66  A    between atoms: _164  and  _165
REMARK   67  A    between atoms: _164  and  _167
REMARK   68  A    between atoms: _167  and  _168
REMARK   69  A    between atoms: _171  and  _173
REMARK   70  A    between atoms: _173  and  _174
REMARK   71  A    between atoms: _173  and  _176
REMARK   72  A    between atoms: _176  and  _177
REMARK   73  A    between atoms: _182  and  _184
REMARK   74  A    between atoms: _184  and  _185
REMARK   75  A    between atoms: _184  and  _187
REMARK   76  A    between atoms: _190  and  _192
REMARK   77  A    between atoms: _192  and  _193
REMARK   78  A    between atoms: _192  and  _195
REMARK   79  A    between atoms: _195  and  _196
REMARK   80  A    between atoms: _199  and  _201
REMARK   81  A    between atoms: _201  and  _202
REMARK   82  A    between atoms: _201  and  _204
REMARK   83  A    between atoms: _204  and  _205
REMARK   84  A    between atoms: _208  and  _210
REMARK   85  A    between atoms: _210  and  _211
REMARK   86  A    between atoms: _210  and  _213
REMARK   87  A    between atoms: _213  and  _214
REMARK   88  A    between atoms: _220  and  _222
REMARK   89  A    between atoms: _222  and  _223
REMARK   90  A    between atoms: _222  and  _225
REMARK   91  A    between atoms: _225  and  _226
REMARK   92  A    between atoms: _231  and  _233
REMARK   93  A    between atoms: _233  and  _234
REMARK   94  A    between atoms: _233  and  _236
REMARK   95  A    between atoms: _236  and  _237
REMARK   96  A    between atoms: _247  and  _249
REMARK   97  A    between atoms: _249  and  _250
REMARK   98  A    between atoms: _249  and  _252
REMARK   99  A    between atoms: _252  and  _253
REMARK  100  A    between atoms: _258  and  _259
REMARK  101  A    between atoms: _261  and  _263
REMARK  102  A    between atoms: _263  and  _264
REMARK  103  A    between atoms: _267  and  _269
REMARK  104  A    between atoms: _269  and  _270
REMARK  105  A    between atoms: _269  and  _272
REMARK  106  A    between atoms: _272  and  _273
REMARK  107  A    between atoms: _279  and  _281
REMARK  108  A    between atoms: _281  and  _282
REMARK  109  A    between atoms: _281  and  _284
REMARK  110  A    between atoms: _284  and  _285
REMARK  111  A    between atoms: _290  and  _292
REMARK  112  A    between atoms: _292  and  _293
REMARK  113  A    between atoms: _292  and  _295
REMARK  114  A    between atoms: _295  and  _296
REMARK  115  A    between atoms: _301  and  _303
REMARK  116  A    between atoms: _303  and  _304
REMARK  117  A    between atoms: _303  and  _306
REMARK  118  A    between atoms: _306  and  _307
REMARK  119  A    between atoms: _307  and  _308
REMARK  120  A    between atoms: _313  and  _315
REMARK  121  A    between atoms: _315  and  _316
REMARK  122  A    between atoms: _315  and  _318
REMARK  123  A    between atoms: _318  and  _319
REMARK  124  A    between atoms: _324  and  _325
REMARK  125  A    between atoms: _327  and  _329
REMARK  126  A    between atoms: _329  and  _330
REMARK  127  A    between atoms: _329  and  _332
REMARK  128  A    between atoms: _332  and  _333
REMARK  129  A    between atoms: _336  and  _338
REMARK  130  A    between atoms: _338  and  _339
REMARK  131  A    between atoms: _342  and  _344
REMARK  132  A    between atoms: _344  and  _345
REMARK  133  A    between atoms: _344  and  _347
REMARK  134  A    between atoms: _347  and  _348
REMARK  135  A    between atoms: _350  and  _352
REMARK  136  A    between atoms: _352  and  _353
REMARK  137  A    between atoms: _352  and  _355
REMARK  138  A    between atoms: _355  and  _356
REMARK  139  A    between atoms: _361  and  _362
REMARK  140  A    between atoms: _364  and  _366
REMARK  141  A    between atoms: _366  and  _367
REMARK  142  A    between atoms: _366  and  _369
REMARK  143  A    between atoms: _369  and  _370
REMARK  144  A    between atoms: _370  and  _371
REMARK  145  A    between atoms: _373  and  _375
REMARK  146  A    between atoms: _375  and  _376
REMARK  147  A    between atoms: _375  and  _378
REMARK  148  A    between atoms: _378  and  _379
REMARK  149  A    between atoms: _379  and  _380
REMARK  150  A    between atoms: _380  and  _381
REMARK  151  A    between atoms: _381  and  _382
REMARK  152  A    between atoms: _386  and  _388
REMARK  153  A    between atoms: _388  and  _389
REMARK  154  A    between atoms: _388  and  _391
REMARK  155  A    between atoms: _391  and  _392
REMARK  156  A    between atoms: _397  and  _398
REMARK  157  A    between atoms: _400  and  _402
REMARK  158  A    between atoms: _402  and  _403
REMARK  159  A    between atoms: _402  and  _405
REMARK  160  A    between atoms: _405  and  _406
REMARK  161  A    between atoms: _408  and  _410
REMARK  162  A    between atoms: _410  and  _411
REMARK  163  A    between atoms: _414  and  _416
REMARK  164  A    between atoms: _416  and  _417
REMARK  165  A    between atoms: _416  and  _419
REMARK  166  A    between atoms: _419  and  _420
REMARK  167  A    between atoms: _423  and  _425
REMARK  168  A    between atoms: _425  and  _426
REMARK  169  A    between atoms: _425  and  _428
REMARK  170  A    between atoms: _428  and  _429
REMARK  171  A    between atoms: _439  and  _441
REMARK  172  A    between atoms: _441  and  _442
REMARK  173  A    between atoms: _441  and  _444
REMARK  174  A    between atoms: _444  and  _445
REMARK  175  A    between atoms: _445  and  _446
REMARK  176  A    between atoms: _451  and  _453
REMARK  177  A    between atoms: _453  and  _454
REMARK  178  A    between atoms: _453  and  _456
REMARK  179  A    between atoms: _459  and  _461
REMARK  180  A    between atoms: _461  and  _462
REMARK  181  A    between atoms: _461  and  _464
REMARK  182  A    between atoms: _464  and  _465
REMARK  183  A    between atoms: _468  and  _470
REMARK  184  A    between atoms: _470  and  _471
REMARK  185  A    between atoms: _474  and  _476
REMARK  186  A    between atoms: _476  and  _477
REMARK  187  A    between atoms: _476  and  _479
REMARK  188  A    between atoms: _482  and  _484
REMARK  189  A    between atoms: _484  and  _485
REMARK  190  A    between atoms: _484  and  _487
REMARK  191  A    between atoms: _487  and  _488
REMARK  192  A    between atoms: _494  and  _496
REMARK  193  A    between atoms: _496  and  _497
REMARK  194  A    between atoms: _496  and  _499
REMARK  195  A    between atoms: _499  and  _500
REMARK  196  A    between atoms: _502  and  _504
REMARK  197  A    between atoms: _504  and  _505
REMARK  198  A    between atoms: _504  and  _507
REMARK  199  A    between atoms: _507  and  _508
REMARK  200  A    between atoms: _513  and  _515
REMARK  201  A    between atoms: _515  and  _516
REMARK  202  A    between atoms: _515  and  _518
REMARK  203  A    between atoms: _518  and  _519
REMARK  204  A    between atoms: _529  and  _531
REMARK  205  A    between atoms: _531  and  _532
REMARK  206  A    between atoms: _531  and  _534
REMARK  207  A    between atoms: _534  and  _535
REMARK  208  A    between atoms: _538  and  _540
REMARK  209  A    between atoms: _540  and  _541
REMARK  210  A    between atoms: _540  and  _543
REMARK  211  A    between atoms: _543  and  _544
REMARK  212  A    between atoms: _549  and  _550
REMARK  213  A    between atoms: _552  and  _554
REMARK  214  A    between atoms: _554  and  _555
REMARK  215  A    between atoms: _554  and  _557
REMARK  216  A    between atoms: _557  and  _558
REMARK  217  A    between atoms: _561  and  _563
REMARK  218  A    between atoms: _563  and  _564
REMARK  219  A    between atoms: _563  and  _566
REMARK  220  A    between atoms: _566  and  _567
REMARK  221  A    between atoms: _567  and  _568
REMARK  222  A    between atoms: _571  and  _573
REMARK  223  A    between atoms: _573  and  _574
REMARK  224  A    between atoms: _573  and  _576
REMARK  225  A    between atoms: _576  and  _577
REMARK  226  A    between atoms: _582  and  _584
REMARK  227  A    between atoms: _584  and  _585
REMARK  228  A    between atoms: _587  and  _589
REMARK  229  A    between atoms: _589  and  _590
REMARK  230  A    between atoms: _589  and  _592
REMARK  231  A    between atoms: _592  and  _593
REMARK  232  A    between atoms: _593  and  _594
REMARK  233  A    between atoms: _596  and  _598
REMARK  234  A    between atoms: _598  and  _599
REMARK  235  A    between atoms: _598  and  _601
REMARK  236  A    between atoms: _601  and  _602
REMARK  237  A    between atoms: _605  and  _607
REMARK  238  A    between atoms: _607  and  _608
REMARK  239  A    between atoms: _607  and  _610
REMARK  240  A    between atoms: _610  and  _611
REMARK  241  A    between atoms: _621  and  _623
REMARK  242  A    between atoms: _623  and  _624
REMARK  243  A    between atoms: _623  and  _626
REMARK  244  A    between atoms: _626  and  _627
REMARK  245  A    between atoms: _629  and  _631
REMARK  246  A    between atoms: _631  and  _632
REMARK  247  A    between atoms: _631  and  _634
REMARK  248  A    between atoms: _634  and  _635
REMARK  249  A    between atoms: _640  and  _642
REMARK  250  A    between atoms: _642  and  _643
REMARK  251  A    between atoms: _642  and  _645
REMARK  252  A    between atoms: _645  and  _646
REMARK  253  A    between atoms: _652  and  _654
REMARK  254  A    between atoms: _654  and  _655
REMARK  255  A    between atoms: _654  and  _657
REMARK  256  A    between atoms: _657  and  _658
REMARK  257  A    between atoms: _658  and  _659
REMARK  258  A    between atoms: _662  and  _664
REMARK  259  A    between atoms: _664  and  _665
REMARK  260  A    between atoms: _664  and  _667
REMARK  261  A    between atoms: _667  and  _668
REMARK  262  A    between atoms: _678  and  _680
REMARK  263  A    between atoms: _680  and  _681
REMARK  264  A    between atoms: _680  and  _683
REMARK  265  A    between atoms: _683  and  _684
REMARK  266  A    between atoms: _687  and  _689
REMARK  267  A    between atoms: _689  and  _690
REMARK  268  A    between atoms: _689  and  _692
REMARK  269  A    between atoms: _692  and  _693
REMARK  270  A    between atoms: _695  and  _697
REMARK  271  A    between atoms: _697  and  _698
REMARK  272  A    between atoms: _697  and  _700
REMARK  273  A    between atoms: _700  and  _701
REMARK  274  A    between atoms: _703  and  _705
REMARK  275  A    between atoms: _705  and  _706
REMARK  276  A    between atoms: _705  and  _708
REMARK  277  A    between atoms: _708  and  _709
REMARK                            x       y       z     vdW  Elec       q    Type
REMARK                         _______ _______ _______ _____ _____    ______ ____
ROOT
ATOM      1  C   THR A   4       5.932   8.629  46.721  0.00  0.00    +0.243 C 
ATOM      2  N   ALA A   5       5.176   8.964  47.763  0.00  0.00    -0.297 N 
ATOM      3  H   ALA A   5       4.211   9.306  47.583  0.00  0.00    +0.150 HD
ATOM      4  O   THR A   4       7.050   8.152  46.831  0.00  0.00    -0.273 OA
ENDROOT
BRANCH   2   5
ATOM      5  CA  ALA A   5       5.634   8.875  49.147  0.00  0.00    +0.149 C 
ATOM      6  CB  ALA A   5       6.329  10.166  49.544  0.00  0.00    +0.031 C 
BRANCH   5   7
ATOM      7  C   ALA A   5       4.432   8.647  50.057  0.00  0.00    +0.241 C 
ATOM      8  N   SER A   6       4.683   8.118  51.243  0.00  0.00    -0.295 N 
ATOM      9  H   SER A   6       5.640   7.763  51.444  0.00  0.00    +0.150 HD
ATOM     10  O   ALA A   5       3.304   8.958  49.689  0.00  0.00    -0.273 OA
BRANCH   8  11
ATOM     11  CA  SER A   6       3.657   8.016  52.282  0.00  0.00    +0.178 C 
BRANCH  11  12
ATOM     12  C   SER A   6       4.296   8.162  53.650  0.00  0.00    +0.243 C 
ATOM     13  N   TYR A   7       3.469   8.405  54.652  0.00  0.00    -0.297 N 
ATOM     14  H   TYR A   7       2.488   8.683  54.446  0.00  0.00    +0.150 HD
ATOM     15  O   SER A   6       5.508   8.069  53.786  0.00  0.00    -0.273 OA
BRANCH  13  16
ATOM     16  CA  TYR A   7       3.899   8.292  56.034  0.00  0.00    +0.153 C 
BRANCH  16  17
ATOM     17  C   TYR A   7       3.743   6.862  56.518  0.00  0.00    +0.241 C 
ATOM     18  N   MET A   8       4.537   6.507  57.524  0.00  0.00    -0.297 N 
ATOM     19  H   MET A   8       5.228   7.197  57.882  0.00  0.00    +0.150 HD
ATOM     20  O   TYR A   7       2.929   6.103  55.978  0.00  0.00    -0.273 OA
BRANCH  18  21
ATOM     21  CA  MET A   8       4.477   5.194  58.143  0.00  0.00    +0.149 C 
BRANCH  21  22
ATOM     22  C   MET A   8       4.294   5.314  59.654  0.00  0.00    +0.241 C 
ATOM     23  O   MET A   8       4.970   6.089  60.320  0.00  0.00    -0.273 OA
ATOM     24  N   LYS A   9       3.354   4.527  60.160  0.00  0.00    -0.298 N 
ATOM     25  H   LYS A   9       2.819   3.916  59.510  0.00  0.00    +0.150 HD
BRANCH  24  26
ATOM     26  CA  LYS A   9       3.032   4.475  61.581  0.00  0.00    +0.137 C 
BRANCH  26  27
ATOM     27  C   LYS A   9       3.385   3.071  62.066  0.00  0.00    +0.227 C 
ATOM     28  O   LYS A   9       3.122   2.073  61.385  0.00  0.00    -0.286 OA
ENDBRANCH  26  27
BRANCH  26  29
ATOM     29  CB  LYS A   9       1.543   4.760  61.781  0.00  0.00    +0.028 C 
BRANCH  29  30
ATOM     30  CG  LYS A   9       1.061   4.701  63.219  0.00  0.00    -0.000 C 
BRANCH  30  31
ATOM     31  CD  LYS A   9      -0.332   5.299  63.365  0.00  0.00    -0.024 C 
BRANCH  31  32
ATOM     32  CE  LYS A   9      -0.909   5.059  64.756  0.00  0.00    -0.086 C 
BRANCH  32  33
ATOM     33  NZ  LYS A   9      -0.075   5.625  65.862  0.00  0.00    +0.380 N 
ATOM     34  HZ1 LYS A   9      -0.529   5.423  66.775  0.00  0.00    -0.089 HD
ATOM     35  HZ2 LYS A   9       0.869   5.190  65.840  0.00  0.00    -0.089 HD
ATOM     36  HZ3 LYS A   9       0.013   6.654  65.737  0.00  0.00    -0.089 HD
ENDBRANCH  32  33
ENDBRANCH  31  32
ENDBRANCH  30  31
ENDBRANCH  29  30
ENDBRANCH  26  29
ENDBRANCH  24  26
ENDBRANCH  21  22
BRANCH  21  37
ATOM     37  CB  MET A   8       5.736   4.382  57.828  0.00  0.00    +0.041 C 
BRANCH  37  38
ATOM     38  CG  MET A   8       5.703   3.746  56.450  0.00  0.00    +0.060 C 
BRANCH  38  39
ATOM     39  SD  MET A   8       4.490   2.415  56.459  0.00  0.00    -0.139 S 
ATOM     40  CE  MET A   8       4.249   2.087  54.718  0.00  0.00    +0.069 C 
ENDBRANCH  38  39
ENDBRANCH  37  38
ENDBRANCH  21  37
ENDBRANCH  18  21
ENDBRANCH  16  17
BRANCH  16  41
ATOM     41  CB  TYR A   7       3.105   9.224  56.927  0.00  0.00    +0.055 C 
BRANCH  41  42
ATOM     42  CG  TYR A   7       3.283  10.677  56.587  0.00  0.00    -0.020 A 
ATOM     43  CD2 TYR A   7       4.483  11.336  56.850  0.00  0.00    -0.001 A 
ATOM     44  CE2 TYR A   7       4.650  12.679  56.534  0.00  0.00    +0.036 A 
ATOM     45  CZ  TYR A   7       3.610  13.370  55.950  0.00  0.00    +0.134 A 
ATOM     46  CE1 TYR A   7       2.413  12.739  55.681  0.00  0.00    +0.036 A 
ATOM     47  CD1 TYR A   7       2.252  11.399  56.005  0.00  0.00    -0.001 A 
BRANCH  45  48
ATOM     48  OH  TYR A   7       3.747  14.711  55.644  0.00  0.00    -0.506 OA
ATOM     49  HH  TYR A   7       4.655  15.014  55.895  0.00  0.00    +0.292 HD
ENDBRANCH  45  48
ENDBRANCH  41  42
ENDBRANCH  16  41
ENDBRANCH  13  16
ENDBRANCH  11  12
BRANCH  11  50
ATOM     50  CB  SER A   6       2.899   6.684  52.194  0.00  0.00    +0.166 C 
BRANCH  50  51
ATOM     51  OG  SER A   6       3.728   5.571  52.481  0.00  0.00    -0.380 OA
ATOM     52  H   SER A   6       4.475   5.542  51.832  0.00  0.00    +0.211 HD
ENDBRANCH  50  51
ENDBRANCH  11  50
ENDBRANCH   8  11
ENDBRANCH   5   7
ENDBRANCH   2   5
BRANCH   1  53
ATOM     53  CA  THR A   4       5.320   8.889  45.339  0.00  0.00    +0.176 C 
BRANCH  53  55
ATOM     54  C   TYR A   3       6.101   8.940  43.054  0.00  0.00    +0.241 C 
ATOM     55  N   THR A   4       6.149   8.373  44.255  0.00  0.00    -0.295 N 
ATOM     56  H   THR A   4       6.778   7.561  44.422  0.00  0.00    +0.150 HD
ATOM     57  O   TYR A   3       5.573  10.029  42.849  0.00  0.00    -0.273 OA
BRANCH  54  58
ATOM     58  CA  TYR A   3       6.684   8.151  41.887  0.00  0.00    +0.153 C 
BRANCH  58  60
ATOM     59  C   GLN A   2       9.020   7.714  41.439  0.00  0.00    +0.241 C 
ATOM     60  N   TYR A   3       7.951   7.497  42.186  0.00  0.00    -0.297 N 
ATOM     61  H   TYR A   3       8.015   6.851  42.998  0.00  0.00    +0.150 HD
ATOM     62  O   GLN A   2       9.013   8.477  40.477  0.00  0.00    -0.273 OA
BRANCH  59  63
ATOM     63  CA  GLN A   2      10.270   6.941  41.805  0.00  0.00    +0.149 C 
BRANCH  63  66
ATOM     64  C   ASN A   1      10.796   4.789  40.746  0.00  0.00    +0.239 C 
ATOM     65  O   ASN A   1      10.464   4.144  41.737  0.00  0.00    -0.274 OA
ATOM     66  N   GLN A   2      10.667   6.111  40.655  0.00  0.00    -0.297 N 
ATOM     67  H   GLN A   2      10.853   6.573  39.742  0.00  0.00    +0.150 HD
BRANCH  64  68
ATOM     68  CA  ASN A   1      11.398   4.081  39.535  0.00  0.00    +0.154 C 
BRANCH  68  69
ATOM     69  N   ASN A   1      12.692   3.522  39.913  0.00  0.00    -0.238 NA
ATOM     70  H   ASN A   1      12.726   2.549  40.279  0.00  0.00    +0.142 HD
ENDBRANCH  68  69
BRANCH  68  71
ATOM     71  CB  ASN A   1      10.447   2.993  39.044  0.00  0.00    +0.111 C 
BRANCH  71  72
ATOM     72  CG  ASN A   1      10.894   2.378  37.738  0.00  0.00    +0.221 C 
ATOM     73  ND2 ASN A   1      10.219   1.309  37.326  0.00  0.00    -0.329 N 
ATOM     74 HD21 ASN A   1       9.436   0.935  37.900  0.00  0.00    +0.145 HD
ATOM     75 HD22 ASN A   1      10.474   0.846  36.430  0.00  0.00    +0.145 HD
ATOM     76  OD1 ASN A   1      11.832   2.863  37.096  0.00  0.00    -0.275 OA
ENDBRANCH  71  72
ENDBRANCH  68  71
ENDBRANCH  64  68
ENDBRANCH  63  66
BRANCH  63  77
ATOM     77  CB  GLN A   2      11.400   7.912  42.205  0.00  0.00    +0.039 C 
BRANCH  77  78
ATOM     78  CG  GLN A   2      11.467   8.262  43.686  0.00  0.00    +0.087 C 
BRANCH  78  79
ATOM     79  CD  GLN A   2      10.233   8.989  44.203  0.00  0.00    +0.219 C 
ATOM     80  NE2 GLN A   2       9.592   8.418  45.220  0.00  0.00    -0.329 N 
ATOM     81 HE21 GLN A   2       9.954   7.535  45.633  0.00  0.00    +0.145 HD
ATOM     82 HE22 GLN A   2       8.729   8.855  45.602  0.00  0.00    +0.145 HD
ATOM     83  OE1 GLN A   2       9.846  10.028  43.684  0.00  0.00    -0.275 OA
ENDBRANCH  78  79
ENDBRANCH  77  78
ENDBRANCH  63  77
ENDBRANCH  59  63
ENDBRANCH  58  60
BRANCH  58  84
ATOM     84  CB  TYR A   3       5.642   7.138  41.434  0.00  0.00    +0.055 C 
BRANCH  84  85
ATOM     85  CG  TYR A   3       5.849   6.602  40.047  0.00  0.00    -0.020 A 
ATOM     86  CD2 TYR A   3       6.514   5.400  39.827  0.00  0.00    -0.001 A 
ATOM     87  CE2 TYR A   3       6.675   4.902  38.534  0.00  0.00    +0.036 A 
ATOM     88  CZ  TYR A   3       6.170   5.597  37.461  0.00  0.00    +0.134 A 
ATOM     89  CE1 TYR A   3       5.501   6.787  37.656  0.00  0.00    +0.036 A 
ATOM     90  CD1 TYR A   3       5.347   7.281  38.941  0.00  0.00    -0.001 A 
BRANCH  88  91
ATOM     91  OH  TYR A   3       6.323   5.105  36.180  0.00  0.00    -0.506 OA
ATOM     92  HH  TYR A   3       6.821   4.250  36.213  0.00  0.00    +0.292 HD
ENDBRANCH  88  91
ENDBRANCH  84  85
ENDBRANCH  58  84
ENDBRANCH  54  58
ENDBRANCH  53  55
BRANCH  53  93
ATOM     93  CB  THR A   4       3.861   8.342  45.220  0.00  0.00    +0.137 C 
ATOM     94  CG2 THR A   4       3.776   6.831  45.454  0.00  0.00    +0.034 C 
BRANCH  93  95
ATOM     95  OG1 THR A   4       3.012   8.995  46.161  0.00  0.00    -0.382 OA
ATOM     96  HG1 THR A   4       3.009   9.969  45.981  0.00  0.00    +0.210 HD
ENDBRANCH  93  95
ENDBRANCH  53  93
ENDBRANCH   1  53
TORSDOF 41
REMARK  Name = ../refined-set-2016/4qll/4qll_pocket.pdb
REMARK  277 active torsions:
REMARK  status: ('A' for Active; 'I' for Inactive)
REMARK    1  A    between atoms: _1  and  _3
REMARK    2  A    between atoms: _3  and  _4
REMARK    3  A    between atoms: _3  and  _6
REMARK    4  A    between atoms: _9  and  _11
REMARK    5  A    between atoms: _11  and  _12
REMARK    6  A    between atoms: _11  and  _14
REMARK    7  A    between atoms: _14  and  _15
REMARK    8  A    between atoms: _18  and  _20
REMARK    9  A    between atoms: _20  and  _21
REMARK   10  A    between atoms: _20  and  _23
REMARK   11  A    between atoms: _23  and  _24
REMARK   12  A    between atoms: _26  and  _28
REMARK   13  A    between atoms: _28  and  _29
REMARK   14  A    between atoms: _28  and  _31
REMARK   15  A    between atoms: _31  and  _32
REMARK   16  A    between atoms: _32  and  _33
REMARK   17  A    between atoms: _38  and  _40
REMARK   18  A    between atoms: _40  and  _41
REMARK   19  A    between atoms: _40  and  _43
REMARK   20  A    between atoms: _43  and  _44
REMARK   21  A    between atoms: _44  and  _45
REMARK   22  A    between atoms: _45  and  _46
REMARK   23  A    between atoms: _55  and  _57
REMARK   24  A    between atoms: _57  and  _58
REMARK   25  A    between atoms: _57  and  _60
REMARK   26  A    between atoms: _60  and  _61
REMARK   27  A    between atoms: _66  and  _68
REMARK   28  A    between atoms: _68  and  _69
REMARK   29  A    between atoms: _68  and  _71
REMARK   30  A    between atoms: _71  and  _72
REMARK   31  A    between atoms: _77  and  _78
REMARK   32  A    between atoms: _80  and  _82
REMARK   33  A    between atoms: _82  and  _83
REMARK   34  A    between atoms: _82  and  _85
REMARK   35  A    between atoms: _85  and  _86
REMARK   36  A    between atoms: _91  and  _93
REMARK   37  A    between atoms: _93  and  _94
REMARK   38  A    between atoms: _93  and  _96
REMARK   39  A    between atoms: _96  and  _97
REMARK   40  A    between atoms: _97  and  _98
REMARK   41  A    between atoms: _103  and  _105
REMARK   42  A    between atoms: _105  and  _106
REMARK   43  A    between atoms: _105  and  _108
REMARK   44  A    between atoms: _108  and  _109
REMARK   45  A    between atoms: _109  and  _110
REMARK   46  A    between atoms: _110  and  _111
REMARK   47  A    between atoms: _120  and  _122
REMARK   48  A    between atoms: _122  and  _123
REMARK   49  A    between atoms: _122  and  _125
REMARK   50  A    between atoms: _125  and  _126
REMARK   51  A    between atoms: _129  and  _131
REMARK   52  A    between atoms: _131  and  _132
REMARK   53  A    between atoms: _131  and  _134
REMARK   54  A    between atoms: _134  and  _135
REMARK   55  A    between atoms: _138  and  _140
REMARK   56  A    between atoms: _140  and  _141
REMARK   57  A    between atoms: _140  and  _143
REMARK   58  A    between atoms: _143  and  _144
REMARK   59  A    between atoms: _147  and  _149
REMARK   60  A    between atoms: _149  and  _150
REMARK   61  A    between atoms: _149  and  _152
REMARK   62  A    between atoms: _152  and  _153
REMARK   63  A    between atoms: _156  and  _158
REMARK   64  A    between atoms: _158  and  _159
REMARK   65  A    between atoms: _162  and  _164
REMARK   66  A    between atoms: _164  and  _165
REMARK   67  A    between atoms: _164  and  _167
REMARK   68  A    between atoms: _167  and  _168
REMARK   69  A    between atoms: _171  and  _173
REMARK   70  A    between atoms: _173  and  _174
REMARK   71  A    between atoms: _173  and  _176
REMARK   72  A    between atoms: _176  and  _177
REMARK   73  A    between atoms: _182  and  _184
REMARK   74  A    between atoms: _184  and  _185
REMARK   75  A    between atoms: _184  and  _187
REMARK   76  A    between atoms: _190  and  _192
REMARK   77  A    between atoms: _192  and  _193
REMARK   78  A    between atoms: _192  and  _195
REMARK   79  A    between atoms: _195  and  _196
REMARK   80  A    between atoms: _199  and  _201
REMARK   81  A    between atoms: _201  and  _202
REMARK   82  A    between atoms: _201  and  _204
REMARK   83  A    between atoms: _204  and  _205
REMARK   84  A    between atoms: _208  and  _210
REMARK   85  A    between atoms: _210  and  _211
REMARK   86  A    between atoms: _210  and  _213
REMARK   87  A    between atoms: _213  and  _214
REMARK   88  A    between atoms: _220  and  _222
REMARK   89  A    between atoms: _222  and  _223
REMARK   90  A    between atoms: _222  and  _225
REMARK   91  A    between atoms: _225  and  _226
REMARK   92  A    between atoms: _231  and  _233
REMARK   93  A    between atoms: _233  and  _234
REMARK   94  A    between atoms: _233  and  _236
REMARK   95  A    between atoms: _236  and  _237
REMARK   96  A    between atoms: _247  and  _249
REMARK   97  A    between atoms: _249  and  _250
REMARK   98  A    between atoms: _249  and  _252
REMARK   99  A    between atoms: _252  and  _253
REMARK  100  A    between atoms: _258  and  _259
REMARK  101  A    between atoms: _261  and  _263
REMARK  102  A    between atoms: _263  and  _264
REMARK  103  A    between atoms: _267  and  _269
REMARK  104  A    between atoms: _269  and  _270
REMARK  105  A    between atoms: _269  and  _272
REMARK  106  A    between atoms: _272  and  _273
REMARK  107  A    between atoms: _279  and  _281
REMARK  108  A    between atoms: _281  and  _282
REMARK  109  A    between atoms: _281  and  _284
REMARK  110  A    between atoms: _284  and  _285
REMARK  111  A    between atoms: _290  and  _292
REMARK  112  A    between atoms: _292  and  _293
REMARK  113  A    between atoms: _292  and  _295
REMARK  114  A    between atoms: _295  and  _296
REMARK  115  A    between atoms: _301  and  _303
REMARK  116  A    between atoms: _303  and  _304
REMARK  117  A    between atoms: _303  and  _306
REMARK  118  A    between atoms: _306  and  _307
REMARK  119  A    between atoms: _307  and  _308
REMARK  120  A    between atoms: _313  and  _315
REMARK  121  A    between atoms: _315  and  _316
REMARK  122  A    between atoms: _315  and  _318
REMARK  123  A    between atoms: _318  and  _319
REMARK  124  A    between atoms: _324  and  _325
REMARK  125  A    between atoms: _327  and  _329
REMARK  126  A    between atoms: _329  and  _330
REMARK  127  A    between atoms: _329  and  _332
REMARK  128  A    between atoms: _332  and  _333
REMARK  129  A    between atoms: _336  and  _338
REMARK  130  A    between atoms: _338  and  _339
REMARK  131  A    between atoms: _342  and  _344
REMARK  132  A    between atoms: _344  and  _345
REMARK  133  A    between atoms: _344  and  _347
REMARK  134  A    between atoms: _347  and  _348
REMARK  135  A    between atoms: _350  and  _352
REMARK  136  A    between atoms: _352  and  _353
REMARK  137  A    between atoms: _352  and  _355
REMARK  138  A    between atoms: _355  and  _356
REMARK  139  A    between atoms: _361  and  _362
REMARK  140  A    between atoms: _364  and  _366
REMARK  141  A    between atoms: _366  and  _367
REMARK  142  A    between atoms: _366  and  _369
REMARK  143  A    between atoms: _369  and  _370
REMARK  144  A    between atoms: _370  and  _371
REMARK  145  A    between atoms: _373  and  _375
REMARK  146  A    between atoms: _375  and  _376
REMARK  147  A    between atoms: _375  and  _378
REMARK  148  A    between atoms: _378  and  _379
REMARK  149  A    between atoms: _379  and  _380
REMARK  150  A    between atoms: _380  and  _381
REMARK  151  A    between atoms: _381  and  _382
REMARK  152  A    between atoms: _386  and  _388
REMARK  153  A    between atoms: _388  and  _389
REMARK  154  A    between atoms: _388  and  _391
REMARK  155  A    between atoms: _391  and  _392
REMARK  156  A    between atoms: _397  and  _398
REMARK  157  A    between atoms: _400  and  _402
REMARK  158  A    between atoms: _402  and  _403
REMARK  159  A    between atoms: _402  and  _405
REMARK  160  A    between atoms: _405  and  _406
REMARK  161  A    between atoms: _408  and  _410
REMARK  162  A    between atoms: _410  and  _411
REMARK  163  A    between atoms: _414  and  _416
REMARK  164  A    between atoms: _416  and  _417
REMARK  165  A    between atoms: _416  and  _419
REMARK  166  A    between atoms: _419  and  _420
REMARK  167  A    between atoms: _423  and  _425
REMARK  168  A    between atoms: _425  and  _426
REMARK  169  A    between atoms: _425  and  _428
REMARK  170  A    between atoms: _428  and  _429
REMARK  171  A    between atoms: _439  and  _441
REMARK  172  A    between atoms: _441  and  _442
REMARK  173  A    between atoms: _441  and  _444
REMARK  174  A    between atoms: _444  and  _445
REMARK  175  A    between atoms: _445  and  _446
REMARK  176  A    between atoms: _451  and  _453
REMARK  177  A    between atoms: _453  and  _454
REMARK  178  A    between atoms: _453  and  _456
REMARK  179  A    between atoms: _459  and  _461
REMARK  180  A    between atoms: _461  and  _462
REMARK  181  A    between atoms: _461  and  _464
REMARK  182  A    between atoms: _464  and  _465
REMARK  183  A    between atoms: _468  and  _470
REMARK  184  A    between atoms: _470  and  _471
REMARK  185  A    between atoms: _474  and  _476
REMARK  186  A    between atoms: _476  and  _477
REMARK  187  A    between atoms: _476  and  _479
REMARK  188  A    between atoms: _482  and  _484
REMARK  189  A    between atoms: _484  and  _485
REMARK  190  A    between atoms: _484  and  _487
REMARK  191  A    between atoms: _487  and  _488
REMARK  192  A    between atoms: _494  and  _496
REMARK  193  A    between atoms: _496  and  _497
REMARK  194  A    between atoms: _496  and  _499
REMARK  195  A    between atoms: _499  and  _500
REMARK  196  A    between atoms: _502  and  _504
REMARK  197  A    between atoms: _504  and  _505
REMARK  198  A    between atoms: _504  and  _507
REMARK  199  A    between atoms: _507  and  _508
REMARK  200  A    between atoms: _513  and  _515
REMARK  201  A    between atoms: _515  and  _516
REMARK  202  A    between atoms: _515  and  _518
REMARK  203  A    between atoms: _518  and  _519
REMARK  204  A    between atoms: _529  and  _531
REMARK  205  A    between atoms: _531  and  _532
REMARK  206  A    between atoms: _531  and  _534
REMARK  207  A    between atoms: _534  and  _535
REMARK  208  A    between atoms: _538  and  _540
REMARK  209  A    between atoms: _540  and  _541
REMARK  210  A    between atoms: _540  and  _543
REMARK  211  A    between atoms: _543  and  _544
REMARK  212  A    between atoms: _549  and  _550
REMARK  213  A    between atoms: _552  and  _554
REMARK  214  A    between atoms: _554  and  _555
REMARK  215  A    between atoms: _554  and  _557
REMARK  216  A    between atoms: _557  and  _558
REMARK  217  A    between atoms: _561  and  _563
REMARK  218  A    between atoms: _563  and  _564
REMARK  219  A    between atoms: _563  and  _566
REMARK  220  A    between atoms: _566  and  _567
REMARK  221  A    between atoms: _567  and  _568
REMARK  222  A    between atoms: _571  and  _573
REMARK  223  A    between atoms: _573  and  _574
REMARK  224  A    between atoms: _573  and  _576
REMARK  225  A    between atoms: _576  and  _577
REMARK  226  A    between atoms: _582  and  _584
REMARK  227  A    between atoms: _584  and  _585
REMARK  228  A    between atoms: _587  and  _589
REMARK  229  A    between atoms: _589  and  _590
REMARK  230  A    between atoms: _589  and  _592
REMARK  231  A    between atoms: _592  and  _593
REMARK  232  A    between atoms: _593  and  _594
REMARK  233  A    between atoms: _596  and  _598
REMARK  234  A    between atoms: _598  and  _599
REMARK  235  A    between atoms: _598  and  _601
REMARK  236  A    between atoms: _601  and  _602
REMARK  237  A    between atoms: _605  and  _607
REMARK  238  A    between atoms: _607  and  _608
REMARK  239  A    between atoms: _607  and  _610
REMARK  240  A    between atoms: _610  and  _611
REMARK  241  A    between atoms: _621  and  _623
REMARK  242  A    between atoms: _623  and  _624
REMARK  243  A    between atoms: _623  and  _626
REMARK  244  A    between atoms: _626  and  _627
REMARK  245  A    between atoms: _629  and  _631
REMARK  246  A    between atoms: _631  and  _632
REMARK  247  A    between atoms: _631  and  _634
REMARK  248  A    between atoms: _634  and  _635
REMARK  249  A    between atoms: _640  and  _642
REMARK  250  A    between atoms: _642  and  _643
REMARK  251  A    between atoms: _642  and  _645
REMARK  252  A    between atoms: _645  and  _646
REMARK  253  A    between atoms: _652  and  _654
REMARK  254  A    between atoms: _654  and  _655
REMARK  255  A    between atoms: _654  and  _657
REMARK  256  A    between atoms: _657  and  _658
REMARK  257  A    between atoms: _658  and  _659
REMARK  258  A    between atoms: _662  and  _664
REMARK  259  A    between atoms: _664  and  _665
REMARK  260  A    between atoms: _664  and  _667
REMARK  261  A    between atoms: _667  and  _668
REMARK  262  A    between atoms: _678  and  _680
REMARK  263  A    between atoms: _680  and  _681
REMARK  264  A    between atoms: _680  and  _683
REMARK  265  A    between atoms: _683  and  _684
REMARK  266  A    between atoms: _687  and  _689
REMARK  267  A    between atoms: _689  and  _690
REMARK  268  A    between atoms: _689  and  _692
REMARK  269  A    between atoms: _692  and  _693
REMARK  270  A    between atoms: _695  and  _697
REMARK  271  A    between atoms: _697  and  _698
REMARK  272  A    between atoms: _697  and  _700
REMARK  273  A    between atoms: _700  and  _701
REMARK  274  A    between atoms: _703  and  _705
REMARK  275  A    between atoms: _705  and  _706
REMARK  276  A    between atoms: _705  and  _708
REMARK  277  A    between atoms: _708  and  _709
REMARK                            x       y       z     vdW  Elec       q    Type
REMARK                         _______ _______ _______ _____ _____    ______ ____
ROOT
ATOM      1  C   TRP A   5       5.760  -4.970  58.834  0.00  0.00    +0.241 C 
ATOM      2  O   TRP A   5       6.547  -4.236  59.447  0.00  0.00    -0.273 OA
ATOM      3  N   GLN A   6       4.570  -5.322  59.313  0.00  0.00    -0.297 N 
ATOM      4  H   GLN A   6       3.996  -5.992  58.762  0.00  0.00    +0.150 HD
ENDROOT
BRANCH   1   5
ATOM      5  CA  TRP A   5       6.113  -5.490  57.423  0.00  0.00    +0.153 C 
BRANCH   5   8
ATOM      6  C   ASP A   4       5.773  -7.881  57.750  0.00  0.00    +0.241 C 
ATOM      7  O   ASP A   4       6.572  -7.911  58.671  0.00  0.00    -0.273 OA
ATOM      8  N   TRP A   5       5.450  -6.759  57.105  0.00  0.00    -0.297 N 
ATOM      9  H   TRP A   5       4.718  -6.784  56.367  0.00  0.00    +0.150 HD
BRANCH   6  10
ATOM     10  CA  ASP A   4       5.102  -9.174  57.298  0.00  0.00    +0.160 C 
BRANCH  10  13
ATOM     11  C   ALA A   3       2.787  -8.391  57.247  0.00  0.00    +0.241 C 
ATOM     12  O   ALA A   3       2.847  -8.007  58.421  0.00  0.00    -0.273 OA
ATOM     13  N   ASP A   4       3.822  -8.952  56.627  0.00  0.00    -0.297 N 
ATOM     14  H   ASP A   4       3.717  -9.242  55.634  0.00  0.00    +0.150 HD
BRANCH  11  15
ATOM     15  CA  ALA A   3       1.498  -8.228  56.431  0.00  0.00    +0.149 C 
ATOM     16  CB  ALA A   3       0.495  -9.326  56.784  0.00  0.00    +0.031 C 
BRANCH  15  19
ATOM     17  C   SER A   2       2.324  -7.176  54.383  0.00  0.00    +0.243 C 
ATOM     18  O   SER A   2       2.701  -6.178  54.992  0.00  0.00    -0.273 OA
ATOM     19  N   ALA A   3       1.753  -8.217  54.984  0.00  0.00    -0.297 N 
ATOM     20  H   ALA A   3       1.480  -9.044  54.415  0.00  0.00    +0.150 HD
BRANCH  17  21
ATOM     21  CA  SER A   2       2.517  -7.284  52.868  0.00  0.00    +0.178 C 
BRANCH  21  24
ATOM     22  C   TYR A   1       4.167  -9.096  52.912  0.00  0.00    +0.239 C 
ATOM     23  O   TYR A   1       4.845  -8.526  53.763  0.00  0.00    -0.274 OA
ATOM     24  N   SER A   2       3.034  -8.597  52.444  0.00  0.00    -0.295 N 
ATOM     25  H   SER A   2       2.489  -9.151  51.753  0.00  0.00    +0.150 HD
BRANCH  22  26
ATOM     26  CA  TYR A   1       4.593 -10.462  52.363  0.00  0.00    +0.149 C 
BRANCH  26  27
ATOM     27  N   TYR A   1       3.489 -11.421  52.476  0.00  0.00    -0.238 NA
ATOM     28  H   TYR A   1       3.259 -12.022  51.659  0.00  0.00    +0.142 HD
ENDBRANCH  26  27
BRANCH  26  29
ATOM     29  CB  TYR A   1       5.073 -10.349  50.904  0.00  0.00    +0.053 C 
BRANCH  29  30
ATOM     30  CG  TYR A   1       5.819  -9.065  50.542  0.00  0.00    -0.020 A 
ATOM     31  CD2 TYR A   1       7.100  -8.804  51.034  0.00  0.00    -0.001 A 
ATOM     32  CE2 TYR A   1       7.784  -7.633  50.684  0.00  0.00    +0.036 A 
ATOM     33  CZ  TYR A   1       7.184  -6.705  49.837  0.00  0.00    +0.134 A 
ATOM     34  CE1 TYR A   1       5.918  -6.950  49.339  0.00  0.00    +0.036 A 
ATOM     35  CD1 TYR A   1       5.252  -8.126  49.669  0.00  0.00    -0.001 A 
BRANCH  33  36
ATOM     36  OH  TYR A   1       7.850  -5.535  49.456  0.00  0.00    -0.506 OA
ATOM     37  HH  TYR A   1       8.738  -5.505  49.893  0.00  0.00    +0.292 HD
ENDBRANCH  33  36
ENDBRANCH  29  30
ENDBRANCH  26  29
ENDBRANCH  22  26
ENDBRANCH  21  24
BRANCH  21  38
ATOM     38  CB  SER A   2       1.196  -6.982  52.161  0.00  0.00    +0.166 C 
BRANCH  38  39
ATOM     39  OG  SER A   2       1.397  -6.941  50.766  0.00  0.00    -0.380 OA
ATOM     40  H   SER A   2       0.537  -6.745  50.316  0.00  0.00    +0.211 HD
ENDBRANCH  38  39
ENDBRANCH  21  38
ENDBRANCH  17  21
ENDBRANCH  15  19
ENDBRANCH  11  15
ENDBRANCH  10  13
BRANCH  10  41
ATOM     41  CB  ASP A   4       6.084  -9.958  56.414  0.00  0.00    +0.143 C 
BRANCH  41  42
ATOM     42  CG  ASP A   4       5.766 -11.451  56.336  0.00  0.00    +0.367 C 
ATOM     43  OD2 ASP A   4       5.125 -12.002  57.265  0.00  0.00    -0.246 OA
ATOM     44  OD1 ASP A   4       6.162 -12.084  55.336  0.00  0.00    -0.246 OA
ENDBRANCH  41  42
ENDBRANCH  10  41
ENDBRANCH   6  10
ENDBRANCH   5   8
BRANCH   5  45
ATOM     45  CB  TRP A   5       5.734  -4.395  56.439  0.00  0.00    +0.057 C 
BRANCH  45  46
ATOM     46  CG  TRP A   5       6.007  -4.614  54.977  0.00  0.00    -0.002 A 
ATOM     47  CD1 TRP A   5       6.104  -5.798  54.296  0.00  0.00    +0.068 A 
ATOM     48  NE1 TRP A   5       6.311  -5.553  52.951  0.00  0.00    -0.352 N 
ATOM     49  CE2 TRP A   5       6.309  -4.196  52.749  0.00  0.00    +0.056 A 
ATOM     50  CZ2 TRP A   5       6.470  -3.456  51.568  0.00  0.00    +0.017 A 
ATOM     51  CH2 TRP A   5       6.421  -2.089  51.663  0.00  0.00    +0.001 A 
ATOM     52  CZ3 TRP A   5       6.223  -1.444  52.897  0.00  0.00    +0.000 A 
ATOM     53  CE3 TRP A   5       6.077  -2.182  54.076  0.00  0.00    +0.001 A 
ATOM     54  HE1 TRP A   5       6.446  -6.276  52.216  0.00  0.00    +0.166 HD
ATOM     55  CD2 TRP A   5       6.106  -3.581  54.003  0.00  0.00    +0.013 A 
ENDBRANCH  45  46
ENDBRANCH   5  45
ENDBRANCH   1   5
BRANCH   3  56
ATOM     56  CA  GLN A   6       4.021  -4.811  60.588  0.00  0.00    +0.149 C 
BRANCH  56  57
ATOM     57  C   GLN A   6       4.087  -3.293  60.677  0.00  0.00    +0.241 C 
ATOM     58  O   GLN A   6       4.620  -2.729  61.632  0.00  0.00    -0.273 OA
ATOM     59  N   VAL A   7       3.555  -2.644  59.651  0.00  0.00    -0.297 N 
ATOM     60  H   VAL A   7       3.197  -3.195  58.845  0.00  0.00    +0.150 HD
BRANCH  59  61
ATOM     61  CA  VAL A   7       3.449  -1.182  59.603  0.00  0.00    +0.149 C 
BRANCH  61  62
ATOM     62  C   VAL A   7       2.067  -0.771  59.124  0.00  0.00    +0.241 C 
ATOM     63  N   THR A   8       1.742   0.508  59.290  0.00  0.00    -0.295 N 
ATOM     64  H   THR A   8       2.385   1.123  59.829  0.00  0.00    +0.150 HD
ATOM     65  O   VAL A   7       1.326  -1.585  58.591  0.00  0.00    -0.273 OA
BRANCH  63  66
ATOM     66  CA  THR A   8       0.519   1.078  58.744  0.00  0.00    +0.176 C 
BRANCH  66  67
ATOM     67  C   THR A   8       0.870   2.307  57.918  0.00  0.00    +0.243 C 
ATOM     68  O   THR A   8       1.392   3.275  58.444  0.00  0.00    -0.273 OA
ATOM     69  N   ALA A   9       0.565   2.254  56.627  0.00  0.00    -0.297 N 
ATOM     70  H   ALA A   9       0.208   1.362  56.229  0.00  0.00    +0.150 HD
BRANCH  69  71
ATOM     71  CA  ALA A   9       0.716   3.415  55.745  0.00  0.00    +0.149 C 
ATOM     72  CB  ALA A   9       0.598   2.993  54.289  0.00  0.00    +0.031 C 
BRANCH  71  73
ATOM     73  C   ALA A   9      -0.331   4.473  56.072  0.00  0.00    +0.241 C 
ATOM     74  O   ALA A   9      -1.505   4.156  56.275  0.00  0.00    -0.273 OA
ATOM     75  N   VAL A  10       0.107   5.726  56.119  0.00  0.00    -0.297 N 
ATOM     76  H   VAL A  10       1.107   5.907  55.896  0.00  0.00    +0.150 HD
BRANCH  75  77
ATOM     77  CA  VAL A  10      -0.738   6.862  56.467  0.00  0.00    +0.149 C 
BRANCH  77  78
ATOM     78  C   VAL A  10      -0.501   7.946  55.417  0.00  0.00    +0.241 C 
ATOM     79  O   VAL A  10       0.642   8.175  55.020  0.00  0.00    -0.273 OA
ATOM     80  N   PHE A  11      -1.574   8.582  54.936  0.00  0.00    -0.298 N 
ATOM     81  H   PHE A  11      -2.510   8.400  55.350  0.00  0.00    +0.150 HD
BRANCH  80  82
ATOM     82  CA  PHE A  11      -1.440   9.542  53.821  0.00  0.00    +0.141 C 
BRANCH  82  83
ATOM     83  C   PHE A  11      -1.796  10.977  54.176  0.00  0.00    +0.227 C 
ATOM     84  O   PHE A  11      -2.032  11.802  53.293  0.00  0.00    -0.286 OA
ENDBRANCH  82  83
BRANCH  82  85
ATOM     85  CB  PHE A  11      -2.232   9.049  52.601  0.00  0.00    +0.054 C 
BRANCH  85  86
ATOM     86  CG  PHE A  11      -1.830   7.676  52.168  0.00  0.00    -0.020 A 
ATOM     87  CD2 PHE A  11      -2.449   6.564  52.708  0.00  0.00    -0.004 A 
ATOM     88  CE2 PHE A  11      -2.065   5.289  52.332  0.00  0.00    -0.000 A 
ATOM     89  CZ  PHE A  11      -1.033   5.123  51.428  0.00  0.00    -0.000 A 
ATOM     90  CE1 PHE A  11      -0.398   6.218  50.894  0.00  0.00    -0.000 A 
ATOM     91  CD1 PHE A  11      -0.790   7.497  51.270  0.00  0.00    -0.004 A 
ENDBRANCH  85  86
ENDBRANCH  82  85
ENDBRANCH  80  82
ENDBRANCH  77  78
BRANCH  77  92
ATOM     92  CB  VAL A  10      -0.437   7.372  57.898  0.00  0.00    +0.027 C 
ATOM     93  CG2 VAL A  10      -0.843   6.336  58.936  0.00  0.00    +0.002 C 
ATOM     94  CG1 VAL A  10      -1.140   8.689  58.168  0.00  0.00    +0.002 C 
ENDBRANCH  77  92
ENDBRANCH  75  77
ENDBRANCH  71  73
ENDBRANCH  69  71
ENDBRANCH  66  67
BRANCH  66  95
ATOM     95  CB  THR A   8      -0.472   1.486  59.862  0.00  0.00    +0.137 C 
ATOM     96  CG2 THR A   8      -1.731   2.117  59.282  0.00  0.00    +0.034 C 
BRANCH  95  97
ATOM     97  OG1 THR A   8      -0.837   0.324  60.616  0.00  0.00    -0.382 OA
ATOM     98  HG1 THR A   8      -1.471   0.582  61.332  0.00  0.00    +0.210 HD
ENDBRANCH  95  97
ENDBRANCH  66  95
ENDBRANCH  63  66
ENDBRANCH  61  62
BRANCH  61  99
ATOM     99  CB  VAL A   7       4.505  -0.546  58.665  0.00  0.00    +0.027 C 
ATOM    100  CG2 VAL A   7       5.913  -0.837  59.177  0.00  0.00    +0.002 C 
ATOM    101  CG1 VAL A   7       4.316  -0.988  57.212  0.00  0.00    +0.002 C 
ENDBRANCH  61  99
ENDBRANCH  59  61
ENDBRANCH  56  57
BRANCH  56 102
ATOM    102  CB  GLN A   6       4.698  -5.460  61.798  0.00  0.00    +0.039 C 
BRANCH 102 103
ATOM    103  CG  GLN A   6       4.458  -6.956  61.886  0.00  0.00    +0.087 C 
BRANCH 103 104
ATOM    104  CD  GLN A   6       4.855  -7.544  63.227  0.00  0.00    +0.219 C 
ATOM    105  OE1 GLN A   6       4.536  -6.994  64.280  0.00  0.00    -0.275 OA
ATOM    106  NE2 GLN A   6       5.558  -8.666  63.194  0.00  0.00    -0.329 N 
ATOM    107 HE21 GLN A   6       5.862  -9.116  64.081  0.00  0.00    +0.145 HD
ATOM    108 HE22 GLN A   6       5.806  -9.098  62.281  0.00  0.00    +0.145 HD
ENDBRANCH 103 104
ENDBRANCH 102 103
ENDBRANCH  56 102
ENDBRANCH   3  56
TORSDOF 40
REMARK  Name = ../refined-set-2016/4qll/4qll_pocket.pdb
REMARK  277 active torsions:
REMARK  status: ('A' for Active; 'I' for Inactive)
REMARK    1  A    between atoms: _1  and  _3
REMARK    2  A    between atoms: _3  and  _4
REMARK    3  A    between atoms: _3  and  _6
REMARK    4  A    between atoms: _9  and  _11
REMARK    5  A    between atoms: _11  and  _12
REMARK    6  A    between atoms: _11  and  _14
REMARK    7  A    between atoms: _14  and  _15
REMARK    8  A    between atoms: _18  and  _20
REMARK    9  A    between atoms: _20  and  _21
REMARK   10  A    between atoms: _20  and  _23
REMARK   11  A    between atoms: _23  and  _24
REMARK   12  A    between atoms: _26  and  _28
REMARK   13  A    between atoms: _28  and  _29
REMARK   14  A    between atoms: _28  and  _31
REMARK   15  A    between atoms: _31  and  _32
REMARK   16  A    between atoms: _32  and  _33
REMARK   17  A    between atoms: _38  and  _40
REMARK   18  A    between atoms: _40  and  _41
REMARK   19  A    between atoms: _40  and  _43
REMARK   20  A    between atoms: _43  and  _44
REMARK   21  A    between atoms: _44  and  _45
REMARK   22  A    between atoms: _45  and  _46
REMARK   23  A    between atoms: _55  and  _57
REMARK   24  A    between atoms: _57  and  _58
REMARK   25  A    between atoms: _57  and  _60
REMARK   26  A    between atoms: _60  and  _61
REMARK   27  A    between atoms: _66  and  _68
REMARK   28  A    between atoms: _68  and  _69
REMARK   29  A    between atoms: _68  and  _71
REMARK   30  A    between atoms: _71  and  _72
REMARK   31  A    between atoms: _77  and  _78
REMARK   32  A    between atoms: _80  and  _82
REMARK   33  A    between atoms: _82  and  _83
REMARK   34  A    between atoms: _82  and  _85
REMARK   35  A    between atoms: _85  and  _86
REMARK   36  A    between atoms: _91  and  _93
REMARK   37  A    between atoms: _93  and  _94
REMARK   38  A    between atoms: _93  and  _96
REMARK   39  A    between atoms: _96  and  _97
REMARK   40  A    between atoms: _97  and  _98
REMARK   41  A    between atoms: _103  and  _105
REMARK   42  A    between atoms: _105  and  _106
REMARK   43  A    between atoms: _105  and  _108
REMARK   44  A    between atoms: _108  and  _109
REMARK   45  A    between atoms: _109  and  _110
REMARK   46  A    between atoms: _110  and  _111
REMARK   47  A    between atoms: _120  and  _122
REMARK   48  A    between atoms: _122  and  _123
REMARK   49  A    between atoms: _122  and  _125
REMARK   50  A    between atoms: _125  and  _126
REMARK   51  A    between atoms: _129  and  _131
REMARK   52  A    between atoms: _131  and  _132
REMARK   53  A    between atoms: _131  and  _134
REMARK   54  A    between atoms: _134  and  _135
REMARK   55  A    between atoms: _138  and  _140
REMARK   56  A    between atoms: _140  and  _141
REMARK   57  A    between atoms: _140  and  _143
REMARK   58  A    between atoms: _143  and  _144
REMARK   59  A    between atoms: _147  and  _149
REMARK   60  A    between atoms: _149  and  _150
REMARK   61  A    between atoms: _149  and  _152
REMARK   62  A    between atoms: _152  and  _153
REMARK   63  A    between atoms: _156  and  _158
REMARK   64  A    between atoms: _158  and  _159
REMARK   65  A    between atoms: _162  and  _164
REMARK   66  A    between atoms: _164  and  _165
REMARK   67  A    between atoms: _164  and  _167
REMARK   68  A    between atoms: _167  and  _168
REMARK   69  A    between atoms: _171  and  _173
REMARK   70  A    between atoms: _173  and  _174
REMARK   71  A    between atoms: _173  and  _176
REMARK   72  A    between atoms: _176  and  _177
REMARK   73  A    between atoms: _182  and  _184
REMARK   74  A    between atoms: _184  and  _185
REMARK   75  A    between atoms: _184  and  _187
REMARK   76  A    between atoms: _190  and  _192
REMARK   77  A    between atoms: _192  and  _193
REMARK   78  A    between atoms: _192  and  _195
REMARK   79  A    between atoms: _195  and  _196
REMARK   80  A    between atoms: _199  and  _201
REMARK   81  A    between atoms: _201  and  _202
REMARK   82  A    between atoms: _201  and  _204
REMARK   83  A    between atoms: _204  and  _205
REMARK   84  A    between atoms: _208  and  _210
REMARK   85  A    between atoms: _210  and  _211
REMARK   86  A    between atoms: _210  and  _213
REMARK   87  A    between atoms: _213  and  _214
REMARK   88  A    between atoms: _220  and  _222
REMARK   89  A    between atoms: _222  and  _223
REMARK   90  A    between atoms: _222  and  _225
REMARK   91  A    between atoms: _225  and  _226
REMARK   92  A    between atoms: _231  and  _233
REMARK   93  A    between atoms: _233  and  _234
REMARK   94  A    between atoms: _233  and  _236
REMARK   95  A    between atoms: _236  and  _237
REMARK   96  A    between atoms: _247  and  _249
REMARK   97  A    between atoms: _249  and  _250
REMARK   98  A    between atoms: _249  and  _252
REMARK   99  A    between atoms: _252  and  _253
REMARK  100  A    between atoms: _258  and  _259
REMARK  101  A    between atoms: _261  and  _263
REMARK  102  A    between atoms: _263  and  _264
REMARK  103  A    between atoms: _267  and  _269
REMARK  104  A    between atoms: _269  and  _270
REMARK  105  A    between atoms: _269  and  _272
REMARK  106  A    between atoms: _272  and  _273
REMARK  107  A    between atoms: _279  and  _281
REMARK  108  A    between atoms: _281  and  _282
REMARK  109  A    between atoms: _281  and  _284
REMARK  110  A    between atoms: _284  and  _285
REMARK  111  A    between atoms: _290  and  _292
REMARK  112  A    between atoms: _292  and  _293
REMARK  113  A    between atoms: _292  and  _295
REMARK  114  A    between atoms: _295  and  _296
REMARK  115  A    between atoms: _301  and  _303
REMARK  116  A    between atoms: _303  and  _304
REMARK  117  A    between atoms: _303  and  _306
REMARK  118  A    between atoms: _306  and  _307
REMARK  119  A    between atoms: _307  and  _308
REMARK  120  A    between atoms: _313  and  _315
REMARK  121  A    between atoms: _315  and  _316
REMARK  122  A    between atoms: _315  and  _318
REMARK  123  A    between atoms: _318  and  _319
REMARK  124  A    between atoms: _324  and  _325
REMARK  125  A    between atoms: _327  and  _329
REMARK  126  A    between atoms: _329  and  _330
REMARK  127  A    between atoms: _329  and  _332
REMARK  128  A    between atoms: _332  and  _333
REMARK  129  A    between atoms: _336  and  _338
REMARK  130  A    between atoms: _338  and  _339
REMARK  131  A    between atoms: _342  and  _344
REMARK  132  A    between atoms: _344  and  _345
REMARK  133  A    between atoms: _344  and  _347
REMARK  134  A    between atoms: _347  and  _348
REMARK  135  A    between atoms: _350  and  _352
REMARK  136  A    between atoms: _352  and  _353
REMARK  137  A    between atoms: _352  and  _355
REMARK  138  A    between atoms: _355  and  _356
REMARK  139  A    between atoms: _361  and  _362
REMARK  140  A    between atoms: _364  and  _366
REMARK  141  A    between atoms: _366  and  _367
REMARK  142  A    between atoms: _366  and  _369
REMARK  143  A    between atoms: _369  and  _370
REMARK  144  A    between atoms: _370  and  _371
REMARK  145  A    between atoms: _373  and  _375
REMARK  146  A    between atoms: _375  and  _376
REMARK  147  A    between atoms: _375  and  _378
REMARK  148  A    between atoms: _378  and  _379
REMARK  149  A    between atoms: _379  and  _380
REMARK  150  A    between atoms: _380  and  _381
REMARK  151  A    between atoms: _381  and  _382
REMARK  152  A    between atoms: _386  and  _388
REMARK  153  A    between atoms: _388  and  _389
REMARK  154  A    between atoms: _388  and  _391
REMARK  155  A    between atoms: _391  and  _392
REMARK  156  A    between atoms: _397  and  _398
REMARK  157  A    between atoms: _400  and  _402
REMARK  158  A    between atoms: _402  and  _403
REMARK  159  A    between atoms: _402  and  _405
REMARK  160  A    between atoms: _405  and  _406
REMARK  161  A    between atoms: _408  and  _410
REMARK  162  A    between atoms: _410  and  _411
REMARK  163  A    between atoms: _414  and  _416
REMARK  164  A    between atoms: _416  and  _417
REMARK  165  A    between atoms: _416  and  _419
REMARK  166  A    between atoms: _419  and  _420
REMARK  167  A    between atoms: _423  and  _425
REMARK  168  A    between atoms: _425  and  _426
REMARK  169  A    between atoms: _425  and  _428
REMARK  170  A    between atoms: _428  and  _429
REMARK  171  A    between atoms: _439  and  _441
REMARK  172  A    between atoms: _441  and  _442
REMARK  173  A    between atoms: _441  and  _444
REMARK  174  A    between atoms: _444  and  _445
REMARK  175  A    between atoms: _445  and  _446
REMARK  176  A    between atoms: _451  and  _453
REMARK  177  A    between atoms: _453  and  _454
REMARK  178  A    between atoms: _453  and  _456
REMARK  179  A    between atoms: _459  and  _461
REMARK  180  A    between atoms: _461  and  _462
REMARK  181  A    between atoms: _461  and  _464
REMARK  182  A    between atoms: _464  and  _465
REMARK  183  A    between atoms: _468  and  _470
REMARK  184  A    between atoms: _470  and  _471
REMARK  185  A    between atoms: _474  and  _476
REMARK  186  A    between atoms: _476  and  _477
REMARK  187  A    between atoms: _476  and  _479
REMARK  188  A    between atoms: _482  and  _484
REMARK  189  A    between atoms: _484  and  _485
REMARK  190  A    between atoms: _484  and  _487
REMARK  191  A    between atoms: _487  and  _488
REMARK  192  A    between atoms: _494  and  _496
REMARK  193  A    between atoms: _496  and  _497
REMARK  194  A    between atoms: _496  and  _499
REMARK  195  A    between atoms: _499  and  _500
REMARK  196  A    between atoms: _502  and  _504
REMARK  197  A    between atoms: _504  and  _505
REMARK  198  A    between atoms: _504  and  _507
REMARK  199  A    between atoms: _507  and  _508
REMARK  200  A    between atoms: _513  and  _515
REMARK  201  A    between atoms: _515  and  _516
REMARK  202  A    between atoms: _515  and  _518
REMARK  203  A    between atoms: _518  and  _519
REMARK  204  A    between atoms: _529  and  _531
REMARK  205  A    between atoms: _531  and  _532
REMARK  206  A    between atoms: _531  and  _534
REMARK  207  A    between atoms: _534  and  _535
REMARK  208  A    between atoms: _538  and  _540
REMARK  209  A    between atoms: _540  and  _541
REMARK  210  A    between atoms: _540  and  _543
REMARK  211  A    between atoms: _543  and  _544
REMARK  212  A    between atoms: _549  and  _550
REMARK  213  A    between atoms: _552  and  _554
REMARK  214  A    between atoms: _554  and  _555
REMARK  215  A    between atoms: _554  and  _557
REMARK  216  A    between atoms: _557  and  _558
REMARK  217  A    between atoms: _561  and  _563
REMARK  218  A    between atoms: _563  and  _564
REMARK  219  A    between atoms: _563  and  _566
REMARK  220  A    between atoms: _566  and  _567
REMARK  221  A    between atoms: _567  and  _568
REMARK  222  A    between atoms: _571  and  _573
REMARK  223  A    between atoms: _573  and  _574
REMARK  224  A    between atoms: _573  and  _576
REMARK  225  A    between atoms: _576  and  _577
REMARK  226  A    between atoms: _582  and  _584
REMARK  227  A    between atoms: _584  and  _585
REMARK  228  A    between atoms: _587  and  _589
REMARK  229  A    between atoms: _589  and  _590
REMARK  230  A    between atoms: _589  and  _592
REMARK  231  A    between atoms: _592  and  _593
REMARK  232  A    between atoms: _593  and  _594
REMARK  233  A    between atoms: _596  and  _598
REMARK  234  A    between atoms: _598  and  _599
REMARK  235  A    between atoms: _598  and  _601
REMARK  236  A    between atoms: _601  and  _602
REMARK  237  A    between atoms: _605  and  _607
REMARK  238  A    between atoms: _607  and  _608
REMARK  239  A    between atoms: _607  and  _610
REMARK  240  A    between atoms: _610  and  _611
REMARK  241  A    between atoms: _621  and  _623
REMARK  242  A    between atoms: _623  and  _624
REMARK  243  A    between atoms: _623  and  _626
REMARK  244  A    between atoms: _626  and  _627
REMARK  245  A    between atoms: _629  and  _631
REMARK  246  A    between atoms: _631  and  _632
REMARK  247  A    between atoms: _631  and  _634
REMARK  248  A    between atoms: _634  and  _635
REMARK  249  A    between atoms: _640  and  _642
REMARK  250  A    between atoms: _642  and  _643
REMARK  251  A    between atoms: _642  and  _645
REMARK  252  A    between atoms: _645  and  _646
REMARK  253  A    between atoms: _652  and  _654
REMARK  254  A    between atoms: _654  and  _655
REMARK  255  A    between atoms: _654  and  _657
REMARK  256  A    between atoms: _657  and  _658
REMARK  257  A    between atoms: _658  and  _659
REMARK  258  A    between atoms: _662  and  _664
REMARK  259  A    between atoms: _664  and  _665
REMARK  260  A    between atoms: _664  and  _667
REMARK  261  A    between atoms: _667  and  _668
REMARK  262  A    between atoms: _678  and  _680
REMARK  263  A    between atoms: _680  and  _681
REMARK  264  A    between atoms: _680  and  _683
REMARK  265  A    between atoms: _683  and  _684
REMARK  266  A    between atoms: _687  and  _689
REMARK  267  A    between atoms: _689  and  _690
REMARK  268  A    between atoms: _689  and  _692
REMARK  269  A    between atoms: _692  and  _693
REMARK  270  A    between atoms: _695  and  _697
REMARK  271  A    between atoms: _697  and  _698
REMARK  272  A    between atoms: _697  and  _700
REMARK  273  A    between atoms: _700  and  _701
REMARK  274  A    between atoms: _703  and  _705
REMARK  275  A    between atoms: _705  and  _706
REMARK  276  A    between atoms: _705  and  _708
REMARK  277  A    between atoms: _708  and  _709
REMARK                            x       y       z     vdW  Elec       q    Type
REMARK                         _______ _______ _______ _____ _____    ______ ____
ROOT
ATOM      1  CA  TRP A   3      -1.672   5.092  44.685  0.00  0.00    +0.153 C 
ENDROOT
BRANCH   1   4
ATOM      2  C   ASN A   2      -3.906   6.090  44.393  0.00  0.00    +0.241 C 
ATOM      3  O   ASN A   2      -3.825   6.735  45.440  0.00  0.00    -0.273 OA
ATOM      4  N   TRP A   3      -2.944   5.284  43.956  0.00  0.00    -0.297 N 
ATOM      5  H   TRP A   3      -3.092   4.768  43.065  0.00  0.00    +0.150 HD
BRANCH   2   6
ATOM      6  CA  ASN A   2      -5.153   6.182  43.502  0.00  0.00    +0.158 C 
BRANCH   6   8
ATOM      7  C   SER A   1      -4.071   6.780  41.404  0.00  0.00    +0.241 C 
ATOM      8  N   ASN A   2      -4.847   5.944  42.085  0.00  0.00    -0.297 N 
ATOM      9  H   ASN A   2      -5.244   5.109  41.608  0.00  0.00    +0.150 HD
ATOM     10  O   SER A   1      -3.443   7.691  41.942  0.00  0.00    -0.274 OA
BRANCH   7  11
ATOM     11  CA  SER A   1      -3.972   6.546  39.896  0.00  0.00    +0.174 C 
BRANCH  11  12
ATOM     12  N   SER A   1      -4.199   7.813  39.178  0.00  0.00    -0.236 NA
ATOM     13  H   SER A   1      -3.389   8.291  38.735  0.00  0.00    +0.142 HD
ENDBRANCH  11  12
BRANCH  11  14
ATOM     14  CB  SER A   1      -2.611   5.938  39.538  0.00  0.00    +0.163 C 
BRANCH  14  15
ATOM     15  OG  SER A   1      -2.599   5.447  38.202  0.00  0.00    -0.380 OA
ATOM     16  H   SER A   1      -2.786   6.191  37.576  0.00  0.00    +0.211 HD
ENDBRANCH  14  15
ENDBRANCH  11  14
ENDBRANCH   7  11
ENDBRANCH   6   8
BRANCH   6  17
ATOM     17  CB  ASN A   2      -6.206   5.212  44.006  0.00  0.00    +0.114 C 
BRANCH  17  18
ATOM     18  CG  ASN A   2      -7.558   5.386  43.325  0.00  0.00    +0.222 C 
ATOM     19  ND2 ASN A   2      -8.394   4.363  43.445  0.00  0.00    -0.329 N 
ATOM     20 HD21 ASN A   2      -8.101   3.510  43.963  0.00  0.00    +0.145 HD
ATOM     21 HD22 ASN A   2      -9.343   4.414  43.022  0.00  0.00    +0.145 HD
ATOM     22  OD1 ASN A   2      -7.857   6.421  42.721  0.00  0.00    -0.275 OA
ENDBRANCH  17  18
ENDBRANCH   6  17
ENDBRANCH   2   6
ENDBRANCH   1   4
BRANCH   1  23
ATOM     23  C   TRP A   3      -0.682   6.262  44.516  0.00  0.00    +0.241 C 
ATOM     24  O   TRP A   3       0.285   6.373  45.268  0.00  0.00    -0.273 OA
ATOM     25  N   LEU A   4      -0.923   7.126  43.539  0.00  0.00    -0.297 N 
ATOM     26  H   LEU A   4      -1.836   7.093  43.042  0.00  0.00    +0.150 HD
BRANCH  25  27
ATOM     27  CA  LEU A   4       0.068   8.120  43.150  0.00  0.00    +0.149 C 
BRANCH  27  28
ATOM     28  C   LEU A   4      -0.234   9.474  43.782  0.00  0.00    +0.241 C 
ATOM     29  N   TYR A   5       0.368   9.705  44.942  0.00  0.00    -0.298 N 
ATOM     30  H   TYR A   5       0.924   8.945  45.384  0.00  0.00    +0.150 HD
ATOM     31  O   LEU A   4      -0.996  10.275  43.238  0.00  0.00    -0.273 OA
BRANCH  29  32
ATOM     32  CA  TYR A   5       0.271  10.991  45.611  0.00  0.00    +0.141 C 
BRANCH  32  33
ATOM     33  C   TYR A   5       1.415  11.866  45.098  0.00  0.00    +0.227 C 
ATOM     34  O   TYR A   5       2.562  11.423  45.033  0.00  0.00    -0.286 OA
ENDBRANCH  32  33
BRANCH  32  35
ATOM     35  CB  TYR A   5       0.332  10.823  47.133  0.00  0.00    +0.054 C 
BRANCH  35  36
ATOM     36  CG  TYR A   5      -0.816  10.022  47.693  0.00  0.00    -0.020 A 
ATOM     37  CD2 TYR A   5      -1.913  10.644  48.281  0.00  0.00    -0.001 A 
ATOM     38  CE2 TYR A   5      -2.978   9.899  48.779  0.00  0.00    +0.036 A 
ATOM     39  CZ  TYR A   5      -2.932   8.514  48.682  0.00  0.00    +0.134 A 
ATOM     40  CE1 TYR A   5      -1.854   7.884  48.114  0.00  0.00    +0.036 A 
ATOM     41  CD1 TYR A   5      -0.808   8.634  47.624  0.00  0.00    -0.001 A 
BRANCH  39  42
ATOM     42  OH  TYR A   5      -3.945   7.751  49.161  0.00  0.00    -0.506 OA
ATOM     43  HH  TYR A   5      -4.048   7.913  50.132  0.00  0.00    +0.292 HD
ENDBRANCH  39  42
ENDBRANCH  35  36
ENDBRANCH  32  35
ENDBRANCH  29  32
ENDBRANCH  27  28
BRANCH  27  44
ATOM     44  CB  LEU A   4       0.167   8.239  41.618  0.00  0.00    +0.029 C 
BRANCH  44  45
ATOM     45  CG  LEU A   4       1.485   8.756  41.035  0.00  0.00    +0.002 C 
ATOM     46  CD2 LEU A   4       1.807  10.187  41.435  0.00  0.00    +0.000 C 
ATOM     47  CD1 LEU A   4       1.465   8.629  39.515  0.00  0.00    +0.000 C 
ENDBRANCH  44  45
ENDBRANCH  27  44
ENDBRANCH  25  27
ENDBRANCH   1  23
BRANCH   1  48
ATOM     48  CB  TRP A   3      -1.013   3.765  44.277  0.00  0.00    +0.057 C 
BRANCH  48  49
ATOM     49  CG  TRP A   3      -0.742   3.630  42.811  0.00  0.00    -0.002 A 
ATOM     50  CD2 TRP A   3       0.374   4.159  42.084  0.00  0.00    +0.013 A 
ATOM     51  CE3 TRP A   3       1.525   4.879  42.451  0.00  0.00    +0.001 A 
ATOM     52  CZ3 TRP A   3       2.432   5.233  41.462  0.00  0.00    +0.000 A 
ATOM     53  CH2 TRP A   3       2.233   4.861  40.131  0.00  0.00    +0.001 A 
ATOM     54  CZ2 TRP A   3       1.123   4.150  39.737  0.00  0.00    +0.017 A 
ATOM     55  CE2 TRP A   3       0.193   3.814  40.726  0.00  0.00    +0.056 A 
ATOM     56  NE1 TRP A   3      -0.971   3.100  40.634  0.00  0.00    -0.352 N 
ATOM     57  HE1 TRP A   3      -1.367   2.703  39.758  0.00  0.00    +0.166 HD
ATOM     58  CD1 TRP A   3      -1.532   2.992  41.882  0.00  0.00    +0.068 A 
ENDBRANCH  48  49
ENDBRANCH   1  48
TORSDOF 21
REMARK  Name = ../refined-set-2016/4qll/4qll_pocket.pdb
REMARK  277 active torsions:
REMARK  status: ('A' for Active; 'I' for Inactive)
REMARK    1  A    between atoms: _1  and  _3
REMARK    2  A    between atoms: _3  and  _4
REMARK    3  A    between atoms: _3  and  _6
REMARK    4  A    between atoms: _9  and  _11
REMARK    5  A    between atoms: _11  and  _12
REMARK    6  A    between atoms: _11  and  _14
REMARK    7  A    between atoms: _14  and  _15
REMARK    8  A    between atoms: _18  and  _20
REMARK    9  A    between atoms: _20  and  _21
REMARK   10  A    between atoms: _20  and  _23
REMARK   11  A    between atoms: _23  and  _24
REMARK   12  A    between atoms: _26  and  _28
REMARK   13  A    between atoms: _28  and  _29
REMARK   14  A    between atoms: _28  and  _31
REMARK   15  A    between atoms: _31  and  _32
REMARK   16  A    between atoms: _32  and  _33
REMARK   17  A    between atoms: _38  and  _40
REMARK   18  A    between atoms: _40  and  _41
REMARK   19  A    between atoms: _40  and  _43
REMARK   20  A    between atoms: _43  and  _44
REMARK   21  A    between atoms: _44  and  _45
REMARK   22  A    between atoms: _45  and  _46
REMARK   23  A    between atoms: _55  and  _57
REMARK   24  A    between atoms: _57  and  _58
REMARK   25  A    between atoms: _57  and  _60
REMARK   26  A    between atoms: _60  and  _61
REMARK   27  A    between atoms: _66  and  _68
REMARK   28  A    between atoms: _68  and  _69
REMARK   29  A    between atoms: _68  and  _71
REMARK   30  A    between atoms: _71  and  _72
REMARK   31  A    between atoms: _77  and  _78
REMARK   32  A    between atoms: _80  and  _82
REMARK   33  A    between atoms: _82  and  _83
REMARK   34  A    between atoms: _82  and  _85
REMARK   35  A    between atoms: _85  and  _86
REMARK   36  A    between atoms: _91  and  _93
REMARK   37  A    between atoms: _93  and  _94
REMARK   38  A    between atoms: _93  and  _96
REMARK   39  A    between atoms: _96  and  _97
REMARK   40  A    between atoms: _97  and  _98
REMARK   41  A    between atoms: _103  and  _105
REMARK   42  A    between atoms: _105  and  _106
REMARK   43  A    between atoms: _105  and  _108
REMARK   44  A    between atoms: _108  and  _109
REMARK   45  A    between atoms: _109  and  _110
REMARK   46  A    between atoms: _110  and  _111
REMARK   47  A    between atoms: _120  and  _122
REMARK   48  A    between atoms: _122  and  _123
REMARK   49  A    between atoms: _122  and  _125
REMARK   50  A    between atoms: _125  and  _126
REMARK   51  A    between atoms: _129  and  _131
REMARK   52  A    between atoms: _131  and  _132
REMARK   53  A    between atoms: _131  and  _134
REMARK   54  A    between atoms: _134  and  _135
REMARK   55  A    between atoms: _138  and  _140
REMARK   56  A    between atoms: _140  and  _141
REMARK   57  A    between atoms: _140  and  _143
REMARK   58  A    between atoms: _143  and  _144
REMARK   59  A    between atoms: _147  and  _149
REMARK   60  A    between atoms: _149  and  _150
REMARK   61  A    between atoms: _149  and  _152
REMARK   62  A    between atoms: _152  and  _153
REMARK   63  A    between atoms: _156  and  _158
REMARK   64  A    between atoms: _158  and  _159
REMARK   65  A    between atoms: _162  and  _164
REMARK   66  A    between atoms: _164  and  _165
REMARK   67  A    between atoms: _164  and  _167
REMARK   68  A    between atoms: _167  and  _168
REMARK   69  A    between atoms: _171  and  _173
REMARK   70  A    between atoms: _173  and  _174
REMARK   71  A    between atoms: _173  and  _176
REMARK   72  A    between atoms: _176  and  _177
REMARK   73  A    between atoms: _182  and  _184
REMARK   74  A    between atoms: _184  and  _185
REMARK   75  A    between atoms: _184  and  _187
REMARK   76  A    between atoms: _190  and  _192
REMARK   77  A    between atoms: _192  and  _193
REMARK   78  A    between atoms: _192  and  _195
REMARK   79  A    between atoms: _195  and  _196
REMARK   80  A    between atoms: _199  and  _201
REMARK   81  A    between atoms: _201  and  _202
REMARK   82  A    between atoms: _201  and  _204
REMARK   83  A    between atoms: _204  and  _205
REMARK   84  A    between atoms: _208  and  _210
REMARK   85  A    between atoms: _210  and  _211
REMARK   86  A    between atoms: _210  and  _213
REMARK   87  A    between atoms: _213  and  _214
REMARK   88  A    between atoms: _220  and  _222
REMARK   89  A    between atoms: _222  and  _223
REMARK   90  A    between atoms: _222  and  _225
REMARK   91  A    between atoms: _225  and  _226
REMARK   92  A    between atoms: _231  and  _233
REMARK   93  A    between atoms: _233  and  _234
REMARK   94  A    between atoms: _233  and  _236
REMARK   95  A    between atoms: _236  and  _237
REMARK   96  A    between atoms: _247  and  _249
REMARK   97  A    between atoms: _249  and  _250
REMARK   98  A    between atoms: _249  and  _252
REMARK   99  A    between atoms: _252  and  _253
REMARK  100  A    between atoms: _258  and  _259
REMARK  101  A    between atoms: _261  and  _263
REMARK  102  A    between atoms: _263  and  _264
REMARK  103  A    between atoms: _267  and  _269
REMARK  104  A    between atoms: _269  and  _270
REMARK  105  A    between atoms: _269  and  _272
REMARK  106  A    between atoms: _272  and  _273
REMARK  107  A    between atoms: _279  and  _281
REMARK  108  A    between atoms: _281  and  _282
REMARK  109  A    between atoms: _281  and  _284
REMARK  110  A    between atoms: _284  and  _285
REMARK  111  A    between atoms: _290  and  _292
REMARK  112  A    between atoms: _292  and  _293
REMARK  113  A    between atoms: _292  and  _295
REMARK  114  A    between atoms: _295  and  _296
REMARK  115  A    between atoms: _301  and  _303
REMARK  116  A    between atoms: _303  and  _304
REMARK  117  A    between atoms: _303  and  _306
REMARK  118  A    between atoms: _306  and  _307
REMARK  119  A    between atoms: _307  and  _308
REMARK  120  A    between atoms: _313  and  _315
REMARK  121  A    between atoms: _315  and  _316
REMARK  122  A    between atoms: _315  and  _318
REMARK  123  A    between atoms: _318  and  _319
REMARK  124  A    between atoms: _324  and  _325
REMARK  125  A    between atoms: _327  and  _329
REMARK  126  A    between atoms: _329  and  _330
REMARK  127  A    between atoms: _329  and  _332
REMARK  128  A    between atoms: _332  and  _333
REMARK  129  A    between atoms: _336  and  _338
REMARK  130  A    between atoms: _338  and  _339
REMARK  131  A    between atoms: _342  and  _344
REMARK  132  A    between atoms: _344  and  _345
REMARK  133  A    between atoms: _344  and  _347
REMARK  134  A    between atoms: _347  and  _348
REMARK  135  A    between atoms: _350  and  _352
REMARK  136  A    between atoms: _352  and  _353
REMARK  137  A    between atoms: _352  and  _355
REMARK  138  A    between atoms: _355  and  _356
REMARK  139  A    between atoms: _361  and  _362
REMARK  140  A    between atoms: _364  and  _366
REMARK  141  A    between atoms: _366  and  _367
REMARK  142  A    between atoms: _366  and  _369
REMARK  143  A    between atoms: _369  and  _370
REMARK  144  A    between atoms: _370  and  _371
REMARK  145  A    between atoms: _373  and  _375
REMARK  146  A    between atoms: _375  and  _376
REMARK  147  A    between atoms: _375  and  _378
REMARK  148  A    between atoms: _378  and  _379
REMARK  149  A    between atoms: _379  and  _380
REMARK  150  A    between atoms: _380  and  _381
REMARK  151  A    between atoms: _381  and  _382
REMARK  152  A    between atoms: _386  and  _388
REMARK  153  A    between atoms: _388  and  _389
REMARK  154  A    between atoms: _388  and  _391
REMARK  155  A    between atoms: _391  and  _392
REMARK  156  A    between atoms: _397  and  _398
REMARK  157  A    between atoms: _400  and  _402
REMARK  158  A    between atoms: _402  and  _403
REMARK  159  A    between atoms: _402  and  _405
REMARK  160  A    between atoms: _405  and  _406
REMARK  161  A    between atoms: _408  and  _410
REMARK  162  A    between atoms: _410  and  _411
REMARK  163  A    between atoms: _414  and  _416
REMARK  164  A    between atoms: _416  and  _417
REMARK  165  A    between atoms: _416  and  _419
REMARK  166  A    between atoms: _419  and  _420
REMARK  167  A    between atoms: _423  and  _425
REMARK  168  A    between atoms: _425  and  _426
REMARK  169  A    between atoms: _425  and  _428
REMARK  170  A    between atoms: _428  and  _429
REMARK  171  A    between atoms: _439  and  _441
REMARK  172  A    between atoms: _441  and  _442
REMARK  173  A    between atoms: _441  and  _444
REMARK  174  A    between atoms: _444  and  _445
REMARK  175  A    between atoms: _445  and  _446
REMARK  176  A    between atoms: _451  and  _453
REMARK  177  A    between atoms: _453  and  _454
REMARK  178  A    between atoms: _453  and  _456
REMARK  179  A    between atoms: _459  and  _461
REMARK  180  A    between atoms: _461  and  _462
REMARK  181  A    between atoms: _461  and  _464
REMARK  182  A    between atoms: _464  and  _465
REMARK  183  A    between atoms: _468  and  _470
REMARK  184  A    between atoms: _470  and  _471
REMARK  185  A    between atoms: _474  and  _476
REMARK  186  A    between atoms: _476  and  _477
REMARK  187  A    between atoms: _476  and  _479
REMARK  188  A    between atoms: _482  and  _484
REMARK  189  A    between atoms: _484  and  _485
REMARK  190  A    between atoms: _484  and  _487
REMARK  191  A    between atoms: _487  and  _488
REMARK  192  A    between atoms: _494  and  _496
REMARK  193  A    between atoms: _496  and  _497
REMARK  194  A    between atoms: _496  and  _499
REMARK  195  A    between atoms: _499  and  _500
REMARK  196  A    between atoms: _502  and  _504
REMARK  197  A    between atoms: _504  and  _505
REMARK  198  A    between atoms: _504  and  _507
REMARK  199  A    between atoms: _507  and  _508
REMARK  200  A    between atoms: _513  and  _515
REMARK  201  A    between atoms: _515  and  _516
REMARK  202  A    between atoms: _515  and  _518
REMARK  203  A    between atoms: _518  and  _519
REMARK  204  A    between atoms: _529  and  _531
REMARK  205  A    between atoms: _531  and  _532
REMARK  206  A    between atoms: _531  and  _534
REMARK  207  A    between atoms: _534  and  _535
REMARK  208  A    between atoms: _538  and  _540
REMARK  209  A    between atoms: _540  and  _541
REMARK  210  A    between atoms: _540  and  _543
REMARK  211  A    between atoms: _543  and  _544
REMARK  212  A    between atoms: _549  and  _550
REMARK  213  A    between atoms: _552  and  _554
REMARK  214  A    between atoms: _554  and  _555
REMARK  215  A    between atoms: _554  and  _557
REMARK  216  A    between atoms: _557  and  _558
REMARK  217  A    between atoms: _561  and  _563
REMARK  218  A    between atoms: _563  and  _564
REMARK  219  A    between atoms: _563  and  _566
REMARK  220  A    between atoms: _566  and  _567
REMARK  221  A    between atoms: _567  and  _568
REMARK  222  A    between atoms: _571  and  _573
REMARK  223  A    between atoms: _573  and  _574
REMARK  224  A    between atoms: _573  and  _576
REMARK  225  A    between atoms: _576  and  _577
REMARK  226  A    between atoms: _582  and  _584
REMARK  227  A    between atoms: _584  and  _585
REMARK  228  A    between atoms: _587  and  _589
REMARK  229  A    between atoms: _589  and  _590
REMARK  230  A    between atoms: _589  and  _592
REMARK  231  A    between atoms: _592  and  _593
REMARK  232  A    between atoms: _593  and  _594
REMARK  233  A    between atoms: _596  and  _598
REMARK  234  A    between atoms: _598  and  _599
REMARK  235  A    between atoms: _598  and  _601
REMARK  236  A    between atoms: _601  and  _602
REMARK  237  A    between atoms: _605  and  _607
REMARK  238  A    between atoms: _607  and  _608
REMARK  239  A    between atoms: _607  and  _610
REMARK  240  A    between atoms: _610  and  _611
REMARK  241  A    between atoms: _621  and  _623
REMARK  242  A    between atoms: _623  and  _624
REMARK  243  A    between atoms: _623  and  _626
REMARK  244  A    between atoms: _626  and  _627
REMARK  245  A    between atoms: _629  and  _631
REMARK  246  A    between atoms: _631  and  _632
REMARK  247  A    between atoms: _631  and  _634
REMARK  248  A    between atoms: _634  and  _635
REMARK  249  A    between atoms: _640  and  _642
REMARK  250  A    between atoms: _642  and  _643
REMARK  251  A    between atoms: _642  and  _645
REMARK  252  A    between atoms: _645  and  _646
REMARK  253  A    between atoms: _652  and  _654
REMARK  254  A    between atoms: _654  and  _655
REMARK  255  A    between atoms: _654  and  _657
REMARK  256  A    between atoms: _657  and  _658
REMARK  257  A    between atoms: _658  and  _659
REMARK  258  A    between atoms: _662  and  _664
REMARK  259  A    between atoms: _664  and  _665
REMARK  260  A    between atoms: _664  and  _667
REMARK  261  A    between atoms: _667  and  _668
REMARK  262  A    between atoms: _678  and  _680
REMARK  263  A    between atoms: _680  and  _681
REMARK  264  A    between atoms: _680  and  _683
REMARK  265  A    between atoms: _683  and  _684
REMARK  266  A    between atoms: _687  and  _689
REMARK  267  A    between atoms: _689  and  _690
REMARK  268  A    between atoms: _689  and  _692
REMARK  269  A    between atoms: _692  and  _693
REMARK  270  A    between atoms: _695  and  _697
REMARK  271  A    between atoms: _697  and  _698
REMARK  272  A    between atoms: _697  and  _700
REMARK  273  A    between atoms: _700  and  _701
REMARK  274  A    between atoms: _703  and  _705
REMARK  275  A    between atoms: _705  and  _706
REMARK  276  A    between atoms: _705  and  _708
REMARK  277  A    between atoms: _708  and  _709
REMARK                            x       y       z     vdW  Elec       q    Type
REMARK                         _______ _______ _______ _____ _____    ______ ____
ROOT
ATOM      1  CA  ASN A   3       9.047   9.289  37.066  0.00  0.00    +0.158 C 
ENDROOT
BRANCH   1   2
ATOM      2  C   ASN A   3       7.986   9.975  36.211  0.00  0.00    +0.241 C 
ATOM      3  N   GLY A   4       6.782  10.136  36.751  0.00  0.00    -0.295 N 
ATOM      4  H   GLY A   4       6.625   9.843  37.737  0.00  0.00    +0.150 HD
ATOM      5  O   ASN A   3       8.251  10.306  35.054  0.00  0.00    -0.273 OA
BRANCH   3   6
ATOM      6  CA  GLY A   4       5.660  10.721  35.986  0.00  0.00    +0.176 C 
BRANCH   6   7
ATOM      7  C   GLY A   4       4.318  10.604  36.680  0.00  0.00    +0.243 C 
ATOM      8  O   GLY A   4       4.219  10.094  37.793  0.00  0.00    -0.273 OA
ATOM      9  N   MET A   5       3.266  11.081  36.019  0.00  0.00    -0.297 N 
ATOM     10  H   MET A   5       3.399  11.474  35.065  0.00  0.00    +0.150 HD
BRANCH   9  11
ATOM     11  CA  MET A   5       1.924  11.064  36.609  0.00  0.00    +0.149 C 
BRANCH  11  12
ATOM     12  C   MET A   5       0.876  10.923  35.529  0.00  0.00    +0.241 C 
ATOM     13  N   ASP A   6      -0.331  10.533  35.936  0.00  0.00    -0.298 N 
ATOM     14  H   ASP A   6      -0.523  10.425  36.952  0.00  0.00    +0.150 HD
ATOM     15  O   MET A   5       1.165  11.163  34.349  0.00  0.00    -0.273 OA
BRANCH  13  16
ATOM     16  CA  ASP A   6      -1.390  10.255  34.964  0.00  0.00    +0.148 C 
BRANCH  16  17
ATOM     17  C   ASP A   6      -2.620  11.156  35.032  0.00  0.00    +0.227 C 
ATOM     18  O   ASP A   6      -3.048  11.613  36.112  0.00  0.00    -0.286 OA
ENDBRANCH  16  17
BRANCH  16  19
ATOM     19  CB  ASP A   6      -1.793   8.768  34.950  0.00  0.00    +0.142 C 
BRANCH  19  20
ATOM     20  CG  ASP A   6      -2.287   8.247  36.293  0.00  0.00    +0.367 C 
ATOM     21  OD2 ASP A   6      -2.014   8.861  37.340  0.00  0.00    -0.246 OA
ATOM     22  OD1 ASP A   6      -2.960   7.180  36.295  0.00  0.00    -0.246 OA
ENDBRANCH  19  20
ENDBRANCH  16  19
ENDBRANCH  13  16
ENDBRANCH  11  12
BRANCH  11  23
ATOM     23  CB  MET A   5       1.669  12.328  37.423  0.00  0.00    +0.041 C 
BRANCH  23  24
ATOM     24  CG  MET A   5       1.837  13.623  36.648  0.00  0.00    +0.060 C 
BRANCH  24  25
ATOM     25  SD  MET A   5       0.813  14.922  37.373  0.00  0.00    -0.139 S 
ATOM     26  CE  MET A   5      -0.808  14.503  36.751  0.00  0.00    +0.069 C 
ENDBRANCH  24  25
ENDBRANCH  23  24
ENDBRANCH  11  23
ENDBRANCH   9  11
ENDBRANCH   6   7
ENDBRANCH   3   6
ENDBRANCH   1   2
BRANCH   1  29
ATOM     27  C   GLU A   2      10.393   7.271  36.701  0.00  0.00    +0.241 C 
ATOM     28  O   GLU A   2      10.706   7.135  37.909  0.00  0.00    -0.273 OA
ATOM     29  N   ASN A   3       9.706   8.298  36.219  0.00  0.00    -0.297 N 
ATOM     30  H   ASN A   3       9.633   8.403  35.187  0.00  0.00    +0.150 HD
BRANCH  27  31
ATOM     31  CA  GLU A   2      10.761   6.220  35.666  0.00  0.00    +0.149 C 
BRANCH  31  33
ATOM     32  C   THR A   1      12.934   5.277  34.966  0.00  0.00    +0.241 C 
ATOM     33  N   GLU A   2      12.148   5.813  35.901  0.00  0.00    -0.297 N 
ATOM     34  H   GLU A   2      12.544   5.950  36.853  0.00  0.00    +0.150 HD
ATOM     35  O   THR A   1      12.528   4.925  33.867  0.00  0.00    -0.274 OA
BRANCH  32  36
ATOM     36  CA  THR A   1      14.410   5.078  35.324  0.00  0.00    +0.172 C 
BRANCH  36  37
ATOM     37  N   THR A   1      14.849   5.785  36.526  0.00  0.00    -0.236 NA
ATOM     38  H   THR A   1      14.750   5.316  37.449  0.00  0.00    +0.142 HD
ENDBRANCH  36  37
BRANCH  36  39
ATOM     39  CB  THR A   1      14.774   3.583  35.403  0.00  0.00    +0.135 C 
ATOM     40  CG2 THR A   1      16.287   3.380  35.083  0.00  0.00    +0.034 C 
BRANCH  39  41
ATOM     41  OG1 THR A   1      14.492   3.094  36.715  0.00  0.00    -0.383 OA
ATOM     42  HG1 THR A   1      13.528   3.211  36.909  0.00  0.00    +0.210 HD
ENDBRANCH  39  41
ENDBRANCH  36  39
ENDBRANCH  32  36
ENDBRANCH  31  33
BRANCH  31  43
ATOM     43  CB  GLU A   2       9.750   5.065  35.812  0.00  0.00    +0.041 C 
BRANCH  43  44
ATOM     44  CG  GLU A   2       9.768   4.009  34.726  0.00  0.00    +0.116 C 
BRANCH  44  45
ATOM     45  CD  GLU A   2       8.797   2.857  34.947  0.00  0.00    +0.365 C 
ATOM     46  OE2 GLU A   2       7.733   3.028  35.614  0.00  0.00    -0.246 OA
ATOM     47  OE1 GLU A   2       9.102   1.749  34.431  0.00  0.00    -0.246 OA
ENDBRANCH  44  45
ENDBRANCH  43  44
ENDBRANCH  31  43
ENDBRANCH  27  31
ENDBRANCH   1  29
BRANCH   1  48
ATOM     48  CB  ASN A   3      10.074  10.288  37.586  0.00  0.00    +0.114 C 
BRANCH  48  49
ATOM     49  CG  ASN A   3       9.471  11.354  38.474  0.00  0.00    +0.222 C 
ATOM     50  ND2 ASN A   3       8.707  10.946  39.487  0.00  0.00    -0.329 N 
ATOM     51 HD21 ASN A   3       8.271  11.644  40.124  0.00  0.00    +0.145 HD
ATOM     52 HD22 ASN A   3       8.546   9.930  39.641  0.00  0.00    +0.145 HD
ATOM     53  OD1 ASN A   3       9.694  12.536  38.246  0.00  0.00    -0.275 OA
ENDBRANCH  48  49
ENDBRANCH   1  48
TORSDOF 24
REMARK  Name = ../refined-set-2016/4qll/4qll_pocket.pdb
REMARK  277 active torsions:
REMARK  status: ('A' for Active; 'I' for Inactive)
REMARK    1  A    between atoms: _1  and  _3
REMARK    2  A    between atoms: _3  and  _4
REMARK    3  A    between atoms: _3  and  _6
REMARK    4  A    between atoms: _9  and  _11
REMARK    5  A    between atoms: _11  and  _12
REMARK    6  A    between atoms: _11  and  _14
REMARK    7  A    between atoms: _14  and  _15
REMARK    8  A    between atoms: _18  and  _20
REMARK    9  A    between atoms: _20  and  _21
REMARK   10  A    between atoms: _20  and  _23
REMARK   11  A    between atoms: _23  and  _24
REMARK   12  A    between atoms: _26  and  _28
REMARK   13  A    between atoms: _28  and  _29
REMARK   14  A    between atoms: _28  and  _31
REMARK   15  A    between atoms: _31  and  _32
REMARK   16  A    between atoms: _32  and  _33
REMARK   17  A    between atoms: _38  and  _40
REMARK   18  A    between atoms: _40  and  _41
REMARK   19  A    between atoms: _40  and  _43
REMARK   20  A    between atoms: _43  and  _44
REMARK   21  A    between atoms: _44  and  _45
REMARK   22  A    between atoms: _45  and  _46
REMARK   23  A    between atoms: _55  and  _57
REMARK   24  A    between atoms: _57  and  _58
REMARK   25  A    between atoms: _57  and  _60
REMARK   26  A    between atoms: _60  and  _61
REMARK   27  A    between atoms: _66  and  _68
REMARK   28  A    between atoms: _68  and  _69
REMARK   29  A    between atoms: _68  and  _71
REMARK   30  A    between atoms: _71  and  _72
REMARK   31  A    between atoms: _77  and  _78
REMARK   32  A    between atoms: _80  and  _82
REMARK   33  A    between atoms: _82  and  _83
REMARK   34  A    between atoms: _82  and  _85
REMARK   35  A    between atoms: _85  and  _86
REMARK   36  A    between atoms: _91  and  _93
REMARK   37  A    between atoms: _93  and  _94
REMARK   38  A    between atoms: _93  and  _96
REMARK   39  A    between atoms: _96  and  _97
REMARK   40  A    between atoms: _97  and  _98
REMARK   41  A    between atoms: _103  and  _105
REMARK   42  A    between atoms: _105  and  _106
REMARK   43  A    between atoms: _105  and  _108
REMARK   44  A    between atoms: _108  and  _109
REMARK   45  A    between atoms: _109  and  _110
REMARK   46  A    between atoms: _110  and  _111
REMARK   47  A    between atoms: _120  and  _122
REMARK   48  A    between atoms: _122  and  _123
REMARK   49  A    between atoms: _122  and  _125
REMARK   50  A    between atoms: _125  and  _126
REMARK   51  A    between atoms: _129  and  _131
REMARK   52  A    between atoms: _131  and  _132
REMARK   53  A    between atoms: _131  and  _134
REMARK   54  A    between atoms: _134  and  _135
REMARK   55  A    between atoms: _138  and  _140
REMARK   56  A    between atoms: _140  and  _141
REMARK   57  A    between atoms: _140  and  _143
REMARK   58  A    between atoms: _143  and  _144
REMARK   59  A    between atoms: _147  and  _149
REMARK   60  A    between atoms: _149  and  _150
REMARK   61  A    between atoms: _149  and  _152
REMARK   62  A    between atoms: _152  and  _153
REMARK   63  A    between atoms: _156  and  _158
REMARK   64  A    between atoms: _158  and  _159
REMARK   65  A    between atoms: _162  and  _164
REMARK   66  A    between atoms: _164  and  _165
REMARK   67  A    between atoms: _164  and  _167
REMARK   68  A    between atoms: _167  and  _168
REMARK   69  A    between atoms: _171  and  _173
REMARK   70  A    between atoms: _173  and  _174
REMARK   71  A    between atoms: _173  and  _176
REMARK   72  A    between atoms: _176  and  _177
REMARK   73  A    between atoms: _182  and  _184
REMARK   74  A    between atoms: _184  and  _185
REMARK   75  A    between atoms: _184  and  _187
REMARK   76  A    between atoms: _190  and  _192
REMARK   77  A    between atoms: _192  and  _193
REMARK   78  A    between atoms: _192  and  _195
REMARK   79  A    between atoms: _195  and  _196
REMARK   80  A    between atoms: _199  and  _201
REMARK   81  A    between atoms: _201  and  _202
REMARK   82  A    between atoms: _201  and  _204
REMARK   83  A    between atoms: _204  and  _205
REMARK   84  A    between atoms: _208  and  _210
REMARK   85  A    between atoms: _210  and  _211
REMARK   86  A    between atoms: _210  and  _213
REMARK   87  A    between atoms: _213  and  _214
REMARK   88  A    between atoms: _220  and  _222
REMARK   89  A    between atoms: _222  and  _223
REMARK   90  A    between atoms: _222  and  _225
REMARK   91  A    between atoms: _225  and  _226
REMARK   92  A    between atoms: _231  and  _233
REMARK   93  A    between atoms: _233  and  _234
REMARK   94  A    between atoms: _233  and  _236
REMARK   95  A    between atoms: _236  and  _237
REMARK   96  A    between atoms: _247  and  _249
REMARK   97  A    between atoms: _249  and  _250
REMARK   98  A    between atoms: _249  and  _252
REMARK   99  A    between atoms: _252  and  _253
REMARK  100  A    between atoms: _258  and  _259
REMARK  101  A    between atoms: _261  and  _263
REMARK  102  A    between atoms: _263  and  _264
REMARK  103  A    between atoms: _267  and  _269
REMARK  104  A    between atoms: _269  and  _270
REMARK  105  A    between atoms: _269  and  _272
REMARK  106  A    between atoms: _272  and  _273
REMARK  107  A    between atoms: _279  and  _281
REMARK  108  A    between atoms: _281  and  _282
REMARK  109  A    between atoms: _281  and  _284
REMARK  110  A    between atoms: _284  and  _285
REMARK  111  A    between atoms: _290  and  _292
REMARK  112  A    between atoms: _292  and  _293
REMARK  113  A    between atoms: _292  and  _295
REMARK  114  A    between atoms: _295  and  _296
REMARK  115  A    between atoms: _301  and  _303
REMARK  116  A    between atoms: _303  and  _304
REMARK  117  A    between atoms: _303  and  _306
REMARK  118  A    between atoms: _306  and  _307
REMARK  119  A    between atoms: _307  and  _308
REMARK  120  A    between atoms: _313  and  _315
REMARK  121  A    between atoms: _315  and  _316
REMARK  122  A    between atoms: _315  and  _318
REMARK  123  A    between atoms: _318  and  _319
REMARK  124  A    between atoms: _324  and  _325
REMARK  125  A    between atoms: _327  and  _329
REMARK  126  A    between atoms: _329  and  _330
REMARK  127  A    between atoms: _329  and  _332
REMARK  128  A    between atoms: _332  and  _333
REMARK  129  A    between atoms: _336  and  _338
REMARK  130  A    between atoms: _338  and  _339
REMARK  131  A    between atoms: _342  and  _344
REMARK  132  A    between atoms: _344  and  _345
REMARK  133  A    between atoms: _344  and  _347
REMARK  134  A    between atoms: _347  and  _348
REMARK  135  A    between atoms: _350  and  _352
REMARK  136  A    between atoms: _352  and  _353
REMARK  137  A    between atoms: _352  and  _355
REMARK  138  A    between atoms: _355  and  _356
REMARK  139  A    between atoms: _361  and  _362
REMARK  140  A    between atoms: _364  and  _366
REMARK  141  A    between atoms: _366  and  _367
REMARK  142  A    between atoms: _366  and  _369
REMARK  143  A    between atoms: _369  and  _370
REMARK  144  A    between atoms: _370  and  _371
REMARK  145  A    between atoms: _373  and  _375
REMARK  146  A    between atoms: _375  and  _376
REMARK  147  A    between atoms: _375  and  _378
REMARK  148  A    between atoms: _378  and  _379
REMARK  149  A    between atoms: _379  and  _380
REMARK  150  A    between atoms: _380  and  _381
REMARK  151  A    between atoms: _381  and  _382
REMARK  152  A    between atoms: _386  and  _388
REMARK  153  A    between atoms: _388  and  _389
REMARK  154  A    between atoms: _388  and  _391
REMARK  155  A    between atoms: _391  and  _392
REMARK  156  A    between atoms: _397  and  _398
REMARK  157  A    between atoms: _400  and  _402
REMARK  158  A    between atoms: _402  and  _403
REMARK  159  A    between atoms: _402  and  _405
REMARK  160  A    between atoms: _405  and  _406
REMARK  161  A    between atoms: _408  and  _410
REMARK  162  A    between atoms: _410  and  _411
REMARK  163  A    between atoms: _414  and  _416
REMARK  164  A    between atoms: _416  and  _417
REMARK  165  A    between atoms: _416  and  _419
REMARK  166  A    between atoms: _419  and  _420
REMARK  167  A    between atoms: _423  and  _425
REMARK  168  A    between atoms: _425  and  _426
REMARK  169  A    between atoms: _425  and  _428
REMARK  170  A    between atoms: _428  and  _429
REMARK  171  A    between atoms: _439  and  _441
REMARK  172  A    between atoms: _441  and  _442
REMARK  173  A    between atoms: _441  and  _444
REMARK  174  A    between atoms: _444  and  _445
REMARK  175  A    between atoms: _445  and  _446
REMARK  176  A    between atoms: _451  and  _453
REMARK  177  A    between atoms: _453  and  _454
REMARK  178  A    between atoms: _453  and  _456
REMARK  179  A    between atoms: _459  and  _461
REMARK  180  A    between atoms: _461  and  _462
REMARK  181  A    between atoms: _461  and  _464
REMARK  182  A    between atoms: _464  and  _465
REMARK  183  A    between atoms: _468  and  _470
REMARK  184  A    between atoms: _470  and  _471
REMARK  185  A    between atoms: _474  and  _476
REMARK  186  A    between atoms: _476  and  _477
REMARK  187  A    between atoms: _476  and  _479
REMARK  188  A    between atoms: _482  and  _484
REMARK  189  A    between atoms: _484  and  _485
REMARK  190  A    between atoms: _484  and  _487
REMARK  191  A    between atoms: _487  and  _488
REMARK  192  A    between atoms: _494  and  _496
REMARK  193  A    between atoms: _496  and  _497
REMARK  194  A    between atoms: _496  and  _499
REMARK  195  A    between atoms: _499  and  _500
REMARK  196  A    between atoms: _502  and  _504
REMARK  197  A    between atoms: _504  and  _505
REMARK  198  A    between atoms: _504  and  _507
REMARK  199  A    between atoms: _507  and  _508
REMARK  200  A    between atoms: _513  and  _515
REMARK  201  A    between atoms: _515  and  _516
REMARK  202  A    between atoms: _515  and  _518
REMARK  203  A    between atoms: _518  and  _519
REMARK  204  A    between atoms: _529  and  _531
REMARK  205  A    between atoms: _531  and  _532
REMARK  206  A    between atoms: _531  and  _534
REMARK  207  A    between atoms: _534  and  _535
REMARK  208  A    between atoms: _538  and  _540
REMARK  209  A    between atoms: _540  and  _541
REMARK  210  A    between atoms: _540  and  _543
REMARK  211  A    between atoms: _543  and  _544
REMARK  212  A    between atoms: _549  and  _550
REMARK  213  A    between atoms: _552  and  _554
REMARK  214  A    between atoms: _554  and  _555
REMARK  215  A    between atoms: _554  and  _557
REMARK  216  A    between atoms: _557  and  _558
REMARK  217  A    between atoms: _561  and  _563
REMARK  218  A    between atoms: _563  and  _564
REMARK  219  A    between atoms: _563  and  _566
REMARK  220  A    between atoms: _566  and  _567
REMARK  221  A    between atoms: _567  and  _568
REMARK  222  A    between atoms: _571  and  _573
REMARK  223  A    between atoms: _573  and  _574
REMARK  224  A    between atoms: _573  and  _576
REMARK  225  A    between atoms: _576  and  _577
REMARK  226  A    between atoms: _582  and  _584
REMARK  227  A    between atoms: _584  and  _585
REMARK  228  A    between atoms: _587  and  _589
REMARK  229  A    between atoms: _589  and  _590
REMARK  230  A    between atoms: _589  and  _592
REMARK  231  A    between atoms: _592  and  _593
REMARK  232  A    between atoms: _593  and  _594
REMARK  233  A    between atoms: _596  and  _598
REMARK  234  A    between atoms: _598  and  _599
REMARK  235  A    between atoms: _598  and  _601
REMARK  236  A    between atoms: _601  and  _602
REMARK  237  A    between atoms: _605  and  _607
REMARK  238  A    between atoms: _607  and  _608
REMARK  239  A    between atoms: _607  and  _610
REMARK  240  A    between atoms: _610  and  _611
REMARK  241  A    between atoms: _621  and  _623
REMARK  242  A    between atoms: _623  and  _624
REMARK  243  A    between atoms: _623  and  _626
REMARK  244  A    between atoms: _626  and  _627
REMARK  245  A    between atoms: _629  and  _631
REMARK  246  A    between atoms: _631  and  _632
REMARK  247  A    between atoms: _631  and  _634
REMARK  248  A    between atoms: _634  and  _635
REMARK  249  A    between atoms: _640  and  _642
REMARK  250  A    between atoms: _642  and  _643
REMARK  251  A    between atoms: _642  and  _645
REMARK  252  A    between atoms: _645  and  _646
REMARK  253  A    between atoms: _652  and  _654
REMARK  254  A    between atoms: _654  and  _655
REMARK  255  A    between atoms: _654  and  _657
REMARK  256  A    between atoms: _657  and  _658
REMARK  257  A    between atoms: _658  and  _659
REMARK  258  A    between atoms: _662  and  _664
REMARK  259  A    between atoms: _664  and  _665
REMARK  260  A    between atoms: _664  and  _667
REMARK  261  A    between atoms: _667  and  _668
REMARK  262  A    between atoms: _678  and  _680
REMARK  263  A    between atoms: _680  and  _681
REMARK  264  A    between atoms: _680  and  _683
REMARK  265  A    between atoms: _683  and  _684
REMARK  266  A    between atoms: _687  and  _689
REMARK  267  A    between atoms: _689  and  _690
REMARK  268  A    between atoms: _689  and  _692
REMARK  269  A    between atoms: _692  and  _693
REMARK  270  A    between atoms: _695  and  _697
REMARK  271  A    between atoms: _697  and  _698
REMARK  272  A    between atoms: _697  and  _700
REMARK  273  A    between atoms: _700  and  _701
REMARK  274  A    between atoms: _703  and  _705
REMARK  275  A    between atoms: _705  and  _706
REMARK  276  A    between atoms: _705  and  _708
REMARK  277  A    between atoms: _708  and  _709
REMARK                            x       y       z     vdW  Elec       q    Type
REMARK                         _______ _______ _______ _____ _____    ______ ____
ROOT
ATOM      1  CA  TRP A   1       7.422   7.738  32.296  0.00  0.00    +0.149 C 
ENDROOT
BRANCH   1   2
ATOM      2  C   TRP A   1       6.159   8.555  32.044  0.00  0.00    +0.239 C 
ATOM      3  O   TRP A   1       5.656   9.163  32.983  0.00  0.00    -0.274 OA
ATOM      4  N   SER A   2       5.628   8.602  30.823  0.00  0.00    -0.296 N 
ATOM      5  H   SER A   2       4.808   9.228  30.691  0.00  0.00    +0.150 HD
BRANCH   4   6
ATOM      6  CA  SER A   2       6.087   7.859  29.650  0.00  0.00    +0.166 C 
BRANCH   6   7
ATOM      7  C   SER A   2       6.212   8.808  28.471  0.00  0.00    +0.229 C 
ATOM      8  O   SER A   2       5.671   9.917  28.494  0.00  0.00    -0.286 OA
ENDBRANCH   6   7
BRANCH   6   9
ATOM      9  CB  SER A   2       5.089   6.733  29.316  0.00  0.00    +0.165 C 
BRANCH   9  10
ATOM     10  OG  SER A   2       5.459   6.015  28.145  0.00  0.00    -0.380 OA
ATOM     11  H   SER A   2       6.351   5.606  28.278  0.00  0.00    +0.211 HD
ENDBRANCH   9  10
ENDBRANCH   6   9
ENDBRANCH   4   6
ENDBRANCH   1   2
BRANCH   1  12
ATOM     12  N   TRP A   1       8.485   8.677  32.676  0.00  0.00    -0.238 NA
ATOM     13  H   TRP A   1       8.594   8.951  33.673  0.00  0.00    +0.142 HD
ENDBRANCH   1  12
BRANCH   1  14
ATOM     14  CB  TRP A   1       7.139   6.672  33.370  0.00  0.00    +0.054 C 
BRANCH  14  15
ATOM     15  CG  TRP A   1       6.053   5.755  32.900  0.00  0.00    -0.002 A 
ATOM     16  CD1 TRP A   1       4.700   5.941  33.034  0.00  0.00    +0.068 A 
ATOM     17  NE1 TRP A   1       4.019   4.915  32.415  0.00  0.00    -0.352 N 
ATOM     18  HE1 TRP A   1       2.984   4.818  32.370  0.00  0.00    +0.166 HD
ATOM     19  CE2 TRP A   1       4.921   4.045  31.869  0.00  0.00    +0.056 A 
ATOM     20  CZ2 TRP A   1       4.711   2.871  31.137  0.00  0.00    +0.017 A 
ATOM     21  CH2 TRP A   1       5.817   2.200  30.701  0.00  0.00    +0.001 A 
ATOM     22  CZ3 TRP A   1       7.113   2.657  30.971  0.00  0.00    +0.000 A 
ATOM     23  CE3 TRP A   1       7.326   3.833  31.678  0.00  0.00    +0.001 A 
ATOM     24  CD2 TRP A   1       6.215   4.543  32.147  0.00  0.00    +0.013 A 
ENDBRANCH  14  15
ENDBRANCH   1  14
TORSDOF 8
REMARK  Name = ../refined-set-2016/4qll/4qll_pocket.pdb
REMARK  277 active torsions:
REMARK  status: ('A' for Active; 'I' for Inactive)
REMARK    1  A    between atoms: _1  and  _3
REMARK    2  A    between atoms: _3  and  _4
REMARK    3  A    between atoms: _3  and  _6
REMARK    4  A    between atoms: _9  and  _11
REMARK    5  A    between atoms: _11  and  _12
REMARK    6  A    between atoms: _11  and  _14
REMARK    7  A    between atoms: _14  and  _15
REMARK    8  A    between atoms: _18  and  _20
REMARK    9  A    between atoms: _20  and  _21
REMARK   10  A    between atoms: _20  and  _23
REMARK   11  A    between atoms: _23  and  _24
REMARK   12  A    between atoms: _26  and  _28
REMARK   13  A    between atoms: _28  and  _29
REMARK   14  A    between atoms: _28  and  _31
REMARK   15  A    between atoms: _31  and  _32
REMARK   16  A    between atoms: _32  and  _33
REMARK   17  A    between atoms: _38  and  _40
REMARK   18  A    between atoms: _40  and  _41
REMARK   19  A    between atoms: _40  and  _43
REMARK   20  A    between atoms: _43  and  _44
REMARK   21  A    between atoms: _44  and  _45
REMARK   22  A    between atoms: _45  and  _46
REMARK   23  A    between atoms: _55  and  _57
REMARK   24  A    between atoms: _57  and  _58
REMARK   25  A    between atoms: _57  and  _60
REMARK   26  A    between atoms: _60  and  _61
REMARK   27  A    between atoms: _66  and  _68
REMARK   28  A    between atoms: _68  and  _69
REMARK   29  A    between atoms: _68  and  _71
REMARK   30  A    between atoms: _71  and  _72
REMARK   31  A    between atoms: _77  and  _78
REMARK   32  A    between atoms: _80  and  _82
REMARK   33  A    between atoms: _82  and  _83
REMARK   34  A    between atoms: _82  and  _85
REMARK   35  A    between atoms: _85  and  _86
REMARK   36  A    between atoms: _91  and  _93
REMARK   37  A    between atoms: _93  and  _94
REMARK   38  A    between atoms: _93  and  _96
REMARK   39  A    between atoms: _96  and  _97
REMARK   40  A    between atoms: _97  and  _98
REMARK   41  A    between atoms: _103  and  _105
REMARK   42  A    between atoms: _105  and  _106
REMARK   43  A    between atoms: _105  and  _108
REMARK   44  A    between atoms: _108  and  _109
REMARK   45  A    between atoms: _109  and  _110
REMARK   46  A    between atoms: _110  and  _111
REMARK   47  A    between atoms: _120  and  _122
REMARK   48  A    between atoms: _122  and  _123
REMARK   49  A    between atoms: _122  and  _125
REMARK   50  A    between atoms: _125  and  _126
REMARK   51  A    between atoms: _129  and  _131
REMARK   52  A    between atoms: _131  and  _132
REMARK   53  A    between atoms: _131  and  _134
REMARK   54  A    between atoms: _134  and  _135
REMARK   55  A    between atoms: _138  and  _140
REMARK   56  A    between atoms: _140  and  _141
REMARK   57  A    between atoms: _140  and  _143
REMARK   58  A    between atoms: _143  and  _144
REMARK   59  A    between atoms: _147  and  _149
REMARK   60  A    between atoms: _149  and  _150
REMARK   61  A    between atoms: _149  and  _152
REMARK   62  A    between atoms: _152  and  _153
REMARK   63  A    between atoms: _156  and  _158
REMARK   64  A    between atoms: _158  and  _159
REMARK   65  A    between atoms: _162  and  _164
REMARK   66  A    between atoms: _164  and  _165
REMARK   67  A    between atoms: _164  and  _167
REMARK   68  A    between atoms: _167  and  _168
REMARK   69  A    between atoms: _171  and  _173
REMARK   70  A    between atoms: _173  and  _174
REMARK   71  A    between atoms: _173  and  _176
REMARK   72  A    between atoms: _176  and  _177
REMARK   73  A    between atoms: _182  and  _184
REMARK   74  A    between atoms: _184  and  _185
REMARK   75  A    between atoms: _184  and  _187
REMARK   76  A    between atoms: _190  and  _192
REMARK   77  A    between atoms: _192  and  _193
REMARK   78  A    between atoms: _192  and  _195
REMARK   79  A    between atoms: _195  and  _196
REMARK   80  A    between atoms: _199  and  _201
REMARK   81  A    between atoms: _201  and  _202
REMARK   82  A    between atoms: _201  and  _204
REMARK   83  A    between atoms: _204  and  _205
REMARK   84  A    between atoms: _208  and  _210
REMARK   85  A    between atoms: _210  and  _211
REMARK   86  A    between atoms: _210  and  _213
REMARK   87  A    between atoms: _213  and  _214
REMARK   88  A    between atoms: _220  and  _222
REMARK   89  A    between atoms: _222  and  _223
REMARK   90  A    between atoms: _222  and  _225
REMARK   91  A    between atoms: _225  and  _226
REMARK   92  A    between atoms: _231  and  _233
REMARK   93  A    between atoms: _233  and  _234
REMARK   94  A    between atoms: _233  and  _236
REMARK   95  A    between atoms: _236  and  _237
REMARK   96  A    between atoms: _247  and  _249
REMARK   97  A    between atoms: _249  and  _250
REMARK   98  A    between atoms: _249  and  _252
REMARK   99  A    between atoms: _252  and  _253
REMARK  100  A    between atoms: _258  and  _259
REMARK  101  A    between atoms: _261  and  _263
REMARK  102  A    between atoms: _263  and  _264
REMARK  103  A    between atoms: _267  and  _269
REMARK  104  A    between atoms: _269  and  _270
REMARK  105  A    between atoms: _269  and  _272
REMARK  106  A    between atoms: _272  and  _273
REMARK  107  A    between atoms: _279  and  _281
REMARK  108  A    between atoms: _281  and  _282
REMARK  109  A    between atoms: _281  and  _284
REMARK  110  A    between atoms: _284  and  _285
REMARK  111  A    between atoms: _290  and  _292
REMARK  112  A    between atoms: _292  and  _293
REMARK  113  A    between atoms: _292  and  _295
REMARK  114  A    between atoms: _295  and  _296
REMARK  115  A    between atoms: _301  and  _303
REMARK  116  A    between atoms: _303  and  _304
REMARK  117  A    between atoms: _303  and  _306
REMARK  118  A    between atoms: _306  and  _307
REMARK  119  A    between atoms: _307  and  _308
REMARK  120  A    between atoms: _313  and  _315
REMARK  121  A    between atoms: _315  and  _316
REMARK  122  A    between atoms: _315  and  _318
REMARK  123  A    between atoms: _318  and  _319
REMARK  124  A    between atoms: _324  and  _325
REMARK  125  A    between atoms: _327  and  _329
REMARK  126  A    between atoms: _329  and  _330
REMARK  127  A    between atoms: _329  and  _332
REMARK  128  A    between atoms: _332  and  _333
REMARK  129  A    between atoms: _336  and  _338
REMARK  130  A    between atoms: _338  and  _339
REMARK  131  A    between atoms: _342  and  _344
REMARK  132  A    between atoms: _344  and  _345
REMARK  133  A    between atoms: _344  and  _347
REMARK  134  A    between atoms: _347  and  _348
REMARK  135  A    between atoms: _350  and  _352
REMARK  136  A    between atoms: _352  and  _353
REMARK  137  A    between atoms: _352  and  _355
REMARK  138  A    between atoms: _355  and  _356
REMARK  139  A    between atoms: _361  and  _362
REMARK  140  A    between atoms: _364  and  _366
REMARK  141  A    between atoms: _366  and  _367
REMARK  142  A    between atoms: _366  and  _369
REMARK  143  A    between atoms: _369  and  _370
REMARK  144  A    between atoms: _370  and  _371
REMARK  145  A    between atoms: _373  and  _375
REMARK  146  A    between atoms: _375  and  _376
REMARK  147  A    between atoms: _375  and  _378
REMARK  148  A    between atoms: _378  and  _379
REMARK  149  A    between atoms: _379  and  _380
REMARK  150  A    between atoms: _380  and  _381
REMARK  151  A    between atoms: _381  and  _382
REMARK  152  A    between atoms: _386  and  _388
REMARK  153  A    between atoms: _388  and  _389
REMARK  154  A    between atoms: _388  and  _391
REMARK  155  A    between atoms: _391  and  _392
REMARK  156  A    between atoms: _397  and  _398
REMARK  157  A    between atoms: _400  and  _402
REMARK  158  A    between atoms: _402  and  _403
REMARK  159  A    between atoms: _402  and  _405
REMARK  160  A    between atoms: _405  and  _406
REMARK  161  A    between atoms: _408  and  _410
REMARK  162  A    between atoms: _410  and  _411
REMARK  163  A    between atoms: _414  and  _416
REMARK  164  A    between atoms: _416  and  _417
REMARK  165  A    between atoms: _416  and  _419
REMARK  166  A    between atoms: _419  and  _420
REMARK  167  A    between atoms: _423  and  _425
REMARK  168  A    between atoms: _425  and  _426
REMARK  169  A    between atoms: _425  and  _428
REMARK  170  A    between atoms: _428  and  _429
REMARK  171  A    between atoms: _439  and  _441
REMARK  172  A    between atoms: _441  and  _442
REMARK  173  A    between atoms: _441  and  _444
REMARK  174  A    between atoms: _444  and  _445
REMARK  175  A    between atoms: _445  and  _446
REMARK  176  A    between atoms: _451  and  _453
REMARK  177  A    between atoms: _453  and  _454
REMARK  178  A    between atoms: _453  and  _456
REMARK  179  A    between atoms: _459  and  _461
REMARK  180  A    between atoms: _461  and  _462
REMARK  181  A    between atoms: _461  and  _464
REMARK  182  A    between atoms: _464  and  _465
REMARK  183  A    between atoms: _468  and  _470
REMARK  184  A    between atoms: _470  and  _471
REMARK  185  A    between atoms: _474  and  _476
REMARK  186  A    between atoms: _476  and  _477
REMARK  187  A    between atoms: _476  and  _479
REMARK  188  A    between atoms: _482  and  _484
REMARK  189  A    between atoms: _484  and  _485
REMARK  190  A    between atoms: _484  and  _487
REMARK  191  A    between atoms: _487  and  _488
REMARK  192  A    between atoms: _494  and  _496
REMARK  193  A    between atoms: _496  and  _497
REMARK  194  A    between atoms: _496  and  _499
REMARK  195  A    between atoms: _499  and  _500
REMARK  196  A    between atoms: _502  and  _504
REMARK  197  A    between atoms: _504  and  _505
REMARK  198  A    between atoms: _504  and  _507
REMARK  199  A    between atoms: _507  and  _508
REMARK  200  A    between atoms: _513  and  _515
REMARK  201  A    between atoms: _515  and  _516
REMARK  202  A    between atoms: _515  and  _518
REMARK  203  A    between atoms: _518  and  _519
REMARK  204  A    between atoms: _529  and  _531
REMARK  205  A    between atoms: _531  and  _532
REMARK  206  A    between atoms: _531  and  _534
REMARK  207  A    between atoms: _534  and  _535
REMARK  208  A    between atoms: _538  and  _540
REMARK  209  A    between atoms: _540  and  _541
REMARK  210  A    between atoms: _540  and  _543
REMARK  211  A    between atoms: _543  and  _544
REMARK  212  A    between atoms: _549  and  _550
REMARK  213  A    between atoms: _552  and  _554
REMARK  214  A    between atoms: _554  and  _555
REMARK  215  A    between atoms: _554  and  _557
REMARK  216  A    between atoms: _557  and  _558
REMARK  217  A    between atoms: _561  and  _563
REMARK  218  A    between atoms: _563  and  _564
REMARK  219  A    between atoms: _563  and  _566
REMARK  220  A    between atoms: _566  and  _567
REMARK  221  A    between atoms: _567  and  _568
REMARK  222  A    between atoms: _571  and  _573
REMARK  223  A    between atoms: _573  and  _574
REMARK  224  A    between atoms: _573  and  _576
REMARK  225  A    between atoms: _576  and  _577
REMARK  226  A    between atoms: _582  and  _584
REMARK  227  A    between atoms: _584  and  _585
REMARK  228  A    between atoms: _587  and  _589
REMARK  229  A    between atoms: _589  and  _590
REMARK  230  A    between atoms: _589  and  _592
REMARK  231  A    between atoms: _592  and  _593
REMARK  232  A    between atoms: _593  and  _594
REMARK  233  A    between atoms: _596  and  _598
REMARK  234  A    between atoms: _598  and  _599
REMARK  235  A    between atoms: _598  and  _601
REMARK  236  A    between atoms: _601  and  _602
REMARK  237  A    between atoms: _605  and  _607
REMARK  238  A    between atoms: _607  and  _608
REMARK  239  A    between atoms: _607  and  _610
REMARK  240  A    between atoms: _610  and  _611
REMARK  241  A    between atoms: _621  and  _623
REMARK  242  A    between atoms: _623  and  _624
REMARK  243  A    between atoms: _623  and  _626
REMARK  244  A    between atoms: _626  and  _627
REMARK  245  A    between atoms: _629  and  _631
REMARK  246  A    between atoms: _631  and  _632
REMARK  247  A    between atoms: _631  and  _634
REMARK  248  A    between atoms: _634  and  _635
REMARK  249  A    between atoms: _640  and  _642
REMARK  250  A    between atoms: _642  and  _643
REMARK  251  A    between atoms: _642  and  _645
REMARK  252  A    between atoms: _645  and  _646
REMARK  253  A    between atoms: _652  and  _654
REMARK  254  A    between atoms: _654  and  _655
REMARK  255  A    between atoms: _654  and  _657
REMARK  256  A    between atoms: _657  and  _658
REMARK  257  A    between atoms: _658  and  _659
REMARK  258  A    between atoms: _662  and  _664
REMARK  259  A    between atoms: _664  and  _665
REMARK  260  A    between atoms: _664  and  _667
REMARK  261  A    between atoms: _667  and  _668
REMARK  262  A    between atoms: _678  and  _680
REMARK  263  A    between atoms: _680  and  _681
REMARK  264  A    between atoms: _680  and  _683
REMARK  265  A    between atoms: _683  and  _684
REMARK  266  A    between atoms: _687  and  _689
REMARK  267  A    between atoms: _689  and  _690
REMARK  268  A    between atoms: _689  and  _692
REMARK  269  A    between atoms: _692  and  _693
REMARK  270  A    between atoms: _695  and  _697
REMARK  271  A    between atoms: _697  and  _698
REMARK  272  A    between atoms: _697  and  _700
REMARK  273  A    between atoms: _700  and  _701
REMARK  274  A    between atoms: _703  and  _705
REMARK  275  A    between atoms: _705  and  _706
REMARK  276  A    between atoms: _705  and  _708
REMARK  277  A    between atoms: _708  and  _709
REMARK                            x       y       z     vdW  Elec       q    Type
REMARK                         _______ _______ _______ _____ _____    ______ ____
ROOT
ATOM      1  C   GLU A   3      -2.022  -0.243  32.591  0.00  0.00    +0.241 C 
ATOM      2  O   GLU A   3      -2.767  -0.087  33.561  0.00  0.00    -0.273 OA
ATOM      3  N   TRP A   4      -1.615  -1.442  32.177  0.00  0.00    -0.297 N 
ATOM      4  H   TRP A   4      -1.086  -1.503  31.284  0.00  0.00    +0.150 HD
ENDROOT
BRANCH   3   5
ATOM      5  CA  TRP A   4      -1.876  -2.676  32.917  0.00  0.00    +0.153 C 
BRANCH   5   6
ATOM      6  C   TRP A   4      -3.368  -2.795  33.314  0.00  0.00    +0.241 C 
ATOM      7  N   LEU A   5      -3.691  -2.908  34.603  0.00  0.00    -0.297 N 
ATOM      8  H   LEU A   5      -2.948  -2.856  35.329  0.00  0.00    +0.150 HD
ATOM      9  O   TRP A   4      -4.220  -2.757  32.442  0.00  0.00    -0.273 OA
BRANCH   7  10
ATOM     10  CA  LEU A   5      -5.092  -3.106  35.002  0.00  0.00    +0.149 C 
BRANCH  10  11
ATOM     11  C   LEU A   5      -6.017  -1.944  34.617  0.00  0.00    +0.241 C 
ATOM     12  N   SER A   6      -5.452  -0.745  34.491  0.00  0.00    -0.296 N 
ATOM     13  H   SER A   6      -4.437  -0.644  34.692  0.00  0.00    +0.150 HD
ATOM     14  O   LEU A   5      -7.227  -2.136  34.467  0.00  0.00    -0.273 OA
BRANCH  12  15
ATOM     15  CA  SER A   6      -6.212   0.433  34.080  0.00  0.00    +0.166 C 
BRANCH  15  16
ATOM     16  C   SER A   6      -6.442   0.509  32.582  0.00  0.00    +0.229 C 
ATOM     17  O   SER A   6      -7.174   1.373  32.134  0.00  0.00    -0.286 OA
ENDBRANCH  15  16
BRANCH  15  18
ATOM     18  CB  SER A   6      -5.521   1.717  34.544  0.00  0.00    +0.165 C 
BRANCH  18  19
ATOM     19  OG  SER A   6      -5.427   1.739  35.946  0.00  0.00    -0.380 OA
ATOM     20  H   SER A   6      -4.979   2.574  36.232  0.00  0.00    +0.211 HD
ENDBRANCH  18  19
ENDBRANCH  15  18
ENDBRANCH  12  15
ENDBRANCH  10  11
BRANCH  10  21
ATOM     21  CB  LEU A   5      -5.213  -3.383  36.503  0.00  0.00    +0.029 C 
BRANCH  21  22
ATOM     22  CG  LEU A   5      -4.433  -4.567  37.076  0.00  0.00    +0.002 C 
ATOM     23  CD2 LEU A   5      -4.651  -4.646  38.577  0.00  0.00    +0.000 C 
ATOM     24  CD1 LEU A   5      -4.846  -5.859  36.395  0.00  0.00    +0.000 C 
ENDBRANCH  21  22
ENDBRANCH  10  21
ENDBRANCH   7  10
ENDBRANCH   5   6
BRANCH   5  25
ATOM     25  CB  TRP A   4      -0.909  -2.785  34.098  0.00  0.00    +0.057 C 
BRANCH  25  26
ATOM     26  CG  TRP A   4       0.535  -2.622  33.689  0.00  0.00    -0.002 A 
ATOM     27  CD1 TRP A   4       1.414  -1.658  34.126  0.00  0.00    +0.068 A 
ATOM     28  NE1 TRP A   4       2.623  -1.813  33.515  0.00  0.00    -0.352 N 
ATOM     29  HE1 TRP A   4       3.456  -1.209  33.667  0.00  0.00    +0.166 HD
ATOM     30  CE2 TRP A   4       2.568  -2.892  32.668  0.00  0.00    +0.056 A 
ATOM     31  CZ2 TRP A   4       3.551  -3.436  31.838  0.00  0.00    +0.017 A 
ATOM     32  CH2 TRP A   4       3.216  -4.537  31.092  0.00  0.00    +0.001 A 
ATOM     33  CZ3 TRP A   4       1.927  -5.085  31.145  0.00  0.00    +0.000 A 
ATOM     34  CE3 TRP A   4       0.945  -4.540  31.970  0.00  0.00    +0.001 A 
ATOM     35  CD2 TRP A   4       1.263  -3.421  32.743  0.00  0.00    +0.013 A 
ENDBRANCH  25  26
ENDBRANCH   5  25
ENDBRANCH   3   5
BRANCH   1  36
ATOM     36  CA  GLU A   3      -1.500   0.943  31.757  0.00  0.00    +0.149 C 
BRANCH  36  38
ATOM     37  C   PHE A   2      -1.150   0.348  29.395  0.00  0.00    +0.241 C 
ATOM     38  N   GLU A   3      -1.917   0.870  30.351  0.00  0.00    -0.297 N 
ATOM     39  H   GLU A   3      -2.852   1.242  30.090  0.00  0.00    +0.150 HD
ATOM     40  O   PHE A   2      -0.068  -0.197  29.620  0.00  0.00    -0.273 OA
BRANCH  37  41
ATOM     41  CA  PHE A   2      -1.671   0.466  27.963  0.00  0.00    +0.153 C 
BRANCH  41  44
ATOM     42  C   ASN A   1      -1.132   2.784  27.401  0.00  0.00    +0.239 C 
ATOM     43  O   ASN A   1      -2.039   3.232  28.092  0.00  0.00    -0.274 OA
ATOM     44  N   PHE A   2      -0.916   1.482  27.235  0.00  0.00    -0.297 N 
ATOM     45  H   PHE A   2      -0.183   1.177  26.563  0.00  0.00    +0.150 HD
BRANCH  42  46
ATOM     46  CA  ASN A   1      -0.210   3.728  26.635  0.00  0.00    +0.154 C 
BRANCH  46  47
ATOM     47  N   ASN A   1      -0.349   5.125  27.014  0.00  0.00    -0.238 NA
ATOM     48  H   ASN A   1      -0.683   5.375  27.967  0.00  0.00    +0.142 HD
ENDBRANCH  46  47
BRANCH  46  49
ATOM     49  CB  ASN A   1       1.267   3.312  26.720  0.00  0.00    +0.111 C 
BRANCH  49  50
ATOM     50  CG  ASN A   1       1.836   3.425  28.127  0.00  0.00    +0.221 C 
ATOM     51  OD1 ASN A   1       1.377   2.755  29.047  0.00  0.00    -0.275 OA
ATOM     52  ND2 ASN A   1       2.861   4.254  28.286  0.00  0.00    -0.329 N 
ATOM     53 HD21 ASN A   1       3.308   4.355  29.220  0.00  0.00    +0.145 HD
ATOM     54 HD22 ASN A   1       3.217   4.802  27.477  0.00  0.00    +0.145 HD
ENDBRANCH  49  50
ENDBRANCH  46  49
ENDBRANCH  42  46
ENDBRANCH  41  44
BRANCH  41  55
ATOM     55  CB  PHE A   2      -1.577  -0.881  27.230  0.00  0.00    +0.055 C 
BRANCH  55  56
ATOM     56  CG  PHE A   2      -2.262  -2.007  27.944  0.00  0.00    -0.020 A 
ATOM     57  CD2 PHE A   2      -1.543  -2.905  28.708  0.00  0.00    -0.004 A 
ATOM     58  CE2 PHE A   2      -2.195  -3.928  29.394  0.00  0.00    -0.000 A 
ATOM     59  CZ  PHE A   2      -3.572  -4.055  29.303  0.00  0.00    -0.000 A 
ATOM     60  CE1 PHE A   2      -4.290  -3.168  28.543  0.00  0.00    -0.000 A 
ATOM     61  CD1 PHE A   2      -3.640  -2.152  27.870  0.00  0.00    -0.004 A 
ENDBRANCH  55  56
ENDBRANCH  41  55
ENDBRANCH  37  41
ENDBRANCH  36  38
BRANCH  36  62
ATOM     62  CB  GLU A   3      -1.888   2.315  32.351  0.00  0.00    +0.041 C 
BRANCH  62  63
ATOM     63  CG  GLU A   3      -1.495   2.549  33.808  0.00  0.00    +0.116 C 
BRANCH  63  64
ATOM     64  CD  GLU A   3      -0.023   2.322  34.100  0.00  0.00    +0.365 C 
ATOM     65  OE2 GLU A   3       0.301   2.014  35.273  0.00  0.00    -0.246 OA
ATOM     66  OE1 GLU A   3       0.822   2.459  33.180  0.00  0.00    -0.246 OA
ENDBRANCH  63  64
ENDBRANCH  62  63
ENDBRANCH  36  62
ENDBRANCH   1  36
TORSDOF 25
REMARK  Name = ../refined-set-2016/4qll/4qll_pocket.pdb
REMARK  277 active torsions:
REMARK  status: ('A' for Active; 'I' for Inactive)
REMARK    1  A    between atoms: _1  and  _3
REMARK    2  A    between atoms: _3  and  _4
REMARK    3  A    between atoms: _3  and  _6
REMARK    4  A    between atoms: _9  and  _11
REMARK    5  A    between atoms: _11  and  _12
REMARK    6  A    between atoms: _11  and  _14
REMARK    7  A    between atoms: _14  and  _15
REMARK    8  A    between atoms: _18  and  _20
REMARK    9  A    between atoms: _20  and  _21
REMARK   10  A    between atoms: _20  and  _23
REMARK   11  A    between atoms: _23  and  _24
REMARK   12  A    between atoms: _26  and  _28
REMARK   13  A    between atoms: _28  and  _29
REMARK   14  A    between atoms: _28  and  _31
REMARK   15  A    between atoms: _31  and  _32
REMARK   16  A    between atoms: _32  and  _33
REMARK   17  A    between atoms: _38  and  _40
REMARK   18  A    between atoms: _40  and  _41
REMARK   19  A    between atoms: _40  and  _43
REMARK   20  A    between atoms: _43  and  _44
REMARK   21  A    between atoms: _44  and  _45
REMARK   22  A    between atoms: _45  and  _46
REMARK   23  A    between atoms: _55  and  _57
REMARK   24  A    between atoms: _57  and  _58
REMARK   25  A    between atoms: _57  and  _60
REMARK   26  A    between atoms: _60  and  _61
REMARK   27  A    between atoms: _66  and  _68
REMARK   28  A    between atoms: _68  and  _69
REMARK   29  A    between atoms: _68  and  _71
REMARK   30  A    between atoms: _71  and  _72
REMARK   31  A    between atoms: _77  and  _78
REMARK   32  A    between atoms: _80  and  _82
REMARK   33  A    between atoms: _82  and  _83
REMARK   34  A    between atoms: _82  and  _85
REMARK   35  A    between atoms: _85  and  _86
REMARK   36  A    between atoms: _91  and  _93
REMARK   37  A    between atoms: _93  and  _94
REMARK   38  A    between atoms: _93  and  _96
REMARK   39  A    between atoms: _96  and  _97
REMARK   40  A    between atoms: _97  and  _98
REMARK   41  A    between atoms: _103  and  _105
REMARK   42  A    between atoms: _105  and  _106
REMARK   43  A    between atoms: _105  and  _108
REMARK   44  A    between atoms: _108  and  _109
REMARK   45  A    between atoms: _109  and  _110
REMARK   46  A    between atoms: _110  and  _111
REMARK   47  A    between atoms: _120  and  _122
REMARK   48  A    between atoms: _122  and  _123
REMARK   49  A    between atoms: _122  and  _125
REMARK   50  A    between atoms: _125  and  _126
REMARK   51  A    between atoms: _129  and  _131
REMARK   52  A    between atoms: _131  and  _132
REMARK   53  A    between atoms: _131  and  _134
REMARK   54  A    between atoms: _134  and  _135
REMARK   55  A    between atoms: _138  and  _140
REMARK   56  A    between atoms: _140  and  _141
REMARK   57  A    between atoms: _140  and  _143
REMARK   58  A    between atoms: _143  and  _144
REMARK   59  A    between atoms: _147  and  _149
REMARK   60  A    between atoms: _149  and  _150
REMARK   61  A    between atoms: _149  and  _152
REMARK   62  A    between atoms: _152  and  _153
REMARK   63  A    between atoms: _156  and  _158
REMARK   64  A    between atoms: _158  and  _159
REMARK   65  A    between atoms: _162  and  _164
REMARK   66  A    between atoms: _164  and  _165
REMARK   67  A    between atoms: _164  and  _167
REMARK   68  A    between atoms: _167  and  _168
REMARK   69  A    between atoms: _171  and  _173
REMARK   70  A    between atoms: _173  and  _174
REMARK   71  A    between atoms: _173  and  _176
REMARK   72  A    between atoms: _176  and  _177
REMARK   73  A    between atoms: _182  and  _184
REMARK   74  A    between atoms: _184  and  _185
REMARK   75  A    between atoms: _184  and  _187
REMARK   76  A    between atoms: _190  and  _192
REMARK   77  A    between atoms: _192  and  _193
REMARK   78  A    between atoms: _192  and  _195
REMARK   79  A    between atoms: _195  and  _196
REMARK   80  A    between atoms: _199  and  _201
REMARK   81  A    between atoms: _201  and  _202
REMARK   82  A    between atoms: _201  and  _204
REMARK   83  A    between atoms: _204  and  _205
REMARK   84  A    between atoms: _208  and  _210
REMARK   85  A    between atoms: _210  and  _211
REMARK   86  A    between atoms: _210  and  _213
REMARK   87  A    between atoms: _213  and  _214
REMARK   88  A    between atoms: _220  and  _222
REMARK   89  A    between atoms: _222  and  _223
REMARK   90  A    between atoms: _222  and  _225
REMARK   91  A    between atoms: _225  and  _226
REMARK   92  A    between atoms: _231  and  _233
REMARK   93  A    between atoms: _233  and  _234
REMARK   94  A    between atoms: _233  and  _236
REMARK   95  A    between atoms: _236  and  _237
REMARK   96  A    between atoms: _247  and  _249
REMARK   97  A    between atoms: _249  and  _250
REMARK   98  A    between atoms: _249  and  _252
REMARK   99  A    between atoms: _252  and  _253
REMARK  100  A    between atoms: _258  and  _259
REMARK  101  A    between atoms: _261  and  _263
REMARK  102  A    between atoms: _263  and  _264
REMARK  103  A    between atoms: _267  and  _269
REMARK  104  A    between atoms: _269  and  _270
REMARK  105  A    between atoms: _269  and  _272
REMARK  106  A    between atoms: _272  and  _273
REMARK  107  A    between atoms: _279  and  _281
REMARK  108  A    between atoms: _281  and  _282
REMARK  109  A    between atoms: _281  and  _284
REMARK  110  A    between atoms: _284  and  _285
REMARK  111  A    between atoms: _290  and  _292
REMARK  112  A    between atoms: _292  and  _293
REMARK  113  A    between atoms: _292  and  _295
REMARK  114  A    between atoms: _295  and  _296
REMARK  115  A    between atoms: _301  and  _303
REMARK  116  A    between atoms: _303  and  _304
REMARK  117  A    between atoms: _303  and  _306
REMARK  118  A    between atoms: _306  and  _307
REMARK  119  A    between atoms: _307  and  _308
REMARK  120  A    between atoms: _313  and  _315
REMARK  121  A    between atoms: _315  and  _316
REMARK  122  A    between atoms: _315  and  _318
REMARK  123  A    between atoms: _318  and  _319
REMARK  124  A    between atoms: _324  and  _325
REMARK  125  A    between atoms: _327  and  _329
REMARK  126  A    between atoms: _329  and  _330
REMARK  127  A    between atoms: _329  and  _332
REMARK  128  A    between atoms: _332  and  _333
REMARK  129  A    between atoms: _336  and  _338
REMARK  130  A    between atoms: _338  and  _339
REMARK  131  A    between atoms: _342  and  _344
REMARK  132  A    between atoms: _344  and  _345
REMARK  133  A    between atoms: _344  and  _347
REMARK  134  A    between atoms: _347  and  _348
REMARK  135  A    between atoms: _350  and  _352
REMARK  136  A    between atoms: _352  and  _353
REMARK  137  A    between atoms: _352  and  _355
REMARK  138  A    between atoms: _355  and  _356
REMARK  139  A    between atoms: _361  and  _362
REMARK  140  A    between atoms: _364  and  _366
REMARK  141  A    between atoms: _366  and  _367
REMARK  142  A    between atoms: _366  and  _369
REMARK  143  A    between atoms: _369  and  _370
REMARK  144  A    between atoms: _370  and  _371
REMARK  145  A    between atoms: _373  and  _375
REMARK  146  A    between atoms: _375  and  _376
REMARK  147  A    between atoms: _375  and  _378
REMARK  148  A    between atoms: _378  and  _379
REMARK  149  A    between atoms: _379  and  _380
REMARK  150  A    between atoms: _380  and  _381
REMARK  151  A    between atoms: _381  and  _382
REMARK  152  A    between atoms: _386  and  _388
REMARK  153  A    between atoms: _388  and  _389
REMARK  154  A    between atoms: _388  and  _391
REMARK  155  A    between atoms: _391  and  _392
REMARK  156  A    between atoms: _397  and  _398
REMARK  157  A    between atoms: _400  and  _402
REMARK  158  A    between atoms: _402  and  _403
REMARK  159  A    between atoms: _402  and  _405
REMARK  160  A    between atoms: _405  and  _406
REMARK  161  A    between atoms: _408  and  _410
REMARK  162  A    between atoms: _410  and  _411
REMARK  163  A    between atoms: _414  and  _416
REMARK  164  A    between atoms: _416  and  _417
REMARK  165  A    between atoms: _416  and  _419
REMARK  166  A    between atoms: _419  and  _420
REMARK  167  A    between atoms: _423  and  _425
REMARK  168  A    between atoms: _425  and  _426
REMARK  169  A    between atoms: _425  and  _428
REMARK  170  A    between atoms: _428  and  _429
REMARK  171  A    between atoms: _439  and  _441
REMARK  172  A    between atoms: _441  and  _442
REMARK  173  A    between atoms: _441  and  _444
REMARK  174  A    between atoms: _444  and  _445
REMARK  175  A    between atoms: _445  and  _446
REMARK  176  A    between atoms: _451  and  _453
REMARK  177  A    between atoms: _453  and  _454
REMARK  178  A    between atoms: _453  and  _456
REMARK  179  A    between atoms: _459  and  _461
REMARK  180  A    between atoms: _461  and  _462
REMARK  181  A    between atoms: _461  and  _464
REMARK  182  A    between atoms: _464  and  _465
REMARK  183  A    between atoms: _468  and  _470
REMARK  184  A    between atoms: _470  and  _471
REMARK  185  A    between atoms: _474  and  _476
REMARK  186  A    between atoms: _476  and  _477
REMARK  187  A    between atoms: _476  and  _479
REMARK  188  A    between atoms: _482  and  _484
REMARK  189  A    between atoms: _484  and  _485
REMARK  190  A    between atoms: _484  and  _487
REMARK  191  A    between atoms: _487  and  _488
REMARK  192  A    between atoms: _494  and  _496
REMARK  193  A    between atoms: _496  and  _497
REMARK  194  A    between atoms: _496  and  _499
REMARK  195  A    between atoms: _499  and  _500
REMARK  196  A    between atoms: _502  and  _504
REMARK  197  A    between atoms: _504  and  _505
REMARK  198  A    between atoms: _504  and  _507
REMARK  199  A    between atoms: _507  and  _508
REMARK  200  A    between atoms: _513  and  _515
REMARK  201  A    between atoms: _515  and  _516
REMARK  202  A    between atoms: _515  and  _518
REMARK  203  A    between atoms: _518  and  _519
REMARK  204  A    between atoms: _529  and  _531
REMARK  205  A    between atoms: _531  and  _532
REMARK  206  A    between atoms: _531  and  _534
REMARK  207  A    between atoms: _534  and  _535
REMARK  208  A    between atoms: _538  and  _540
REMARK  209  A    between atoms: _540  and  _541
REMARK  210  A    between atoms: _540  and  _543
REMARK  211  A    between atoms: _543  and  _544
REMARK  212  A    between atoms: _549  and  _550
REMARK  213  A    between atoms: _552  and  _554
REMARK  214  A    between atoms: _554  and  _555
REMARK  215  A    between atoms: _554  and  _557
REMARK  216  A    between atoms: _557  and  _558
REMARK  217  A    between atoms: _561  and  _563
REMARK  218  A    between atoms: _563  and  _564
REMARK  219  A    between atoms: _563  and  _566
REMARK  220  A    between atoms: _566  and  _567
REMARK  221  A    between atoms: _567  and  _568
REMARK  222  A    between atoms: _571  and  _573
REMARK  223  A    between atoms: _573  and  _574
REMARK  224  A    between atoms: _573  and  _576
REMARK  225  A    between atoms: _576  and  _577
REMARK  226  A    between atoms: _582  and  _584
REMARK  227  A    between atoms: _584  and  _585
REMARK  228  A    between atoms: _587  and  _589
REMARK  229  A    between atoms: _589  and  _590
REMARK  230  A    between atoms: _589  and  _592
REMARK  231  A    between atoms: _592  and  _593
REMARK  232  A    between atoms: _593  and  _594
REMARK  233  A    between atoms: _596  and  _598
REMARK  234  A    between atoms: _598  and  _599
REMARK  235  A    between atoms: _598  and  _601
REMARK  236  A    between atoms: _601  and  _602
REMARK  237  A    between atoms: _605  and  _607
REMARK  238  A    between atoms: _607  and  _608
REMARK  239  A    between atoms: _607  and  _610
REMARK  240  A    between atoms: _610  and  _611
REMARK  241  A    between atoms: _621  and  _623
REMARK  242  A    between atoms: _623  and  _624
REMARK  243  A    between atoms: _623  and  _626
REMARK  244  A    between atoms: _626  and  _627
REMARK  245  A    between atoms: _629  and  _631
REMARK  246  A    between atoms: _631  and  _632
REMARK  247  A    between atoms: _631  and  _634
REMARK  248  A    between atoms: _634  and  _635
REMARK  249  A    between atoms: _640  and  _642
REMARK  250  A    between atoms: _642  and  _643
REMARK  251  A    between atoms: _642  and  _645
REMARK  252  A    between atoms: _645  and  _646
REMARK  253  A    between atoms: _652  and  _654
REMARK  254  A    between atoms: _654  and  _655
REMARK  255  A    between atoms: _654  and  _657
REMARK  256  A    between atoms: _657  and  _658
REMARK  257  A    between atoms: _658  and  _659
REMARK  258  A    between atoms: _662  and  _664
REMARK  259  A    between atoms: _664  and  _665
REMARK  260  A    between atoms: _664  and  _667
REMARK  261  A    between atoms: _667  and  _668
REMARK  262  A    between atoms: _678  and  _680
REMARK  263  A    between atoms: _680  and  _681
REMARK  264  A    between atoms: _680  and  _683
REMARK  265  A    between atoms: _683  and  _684
REMARK  266  A    between atoms: _687  and  _689
REMARK  267  A    between atoms: _689  and  _690
REMARK  268  A    between atoms: _689  and  _692
REMARK  269  A    between atoms: _692  and  _693
REMARK  270  A    between atoms: _695  and  _697
REMARK  271  A    between atoms: _697  and  _698
REMARK  272  A    between atoms: _697  and  _700
REMARK  273  A    between atoms: _700  and  _701
REMARK  274  A    between atoms: _703  and  _705
REMARK  275  A    between atoms: _705  and  _706
REMARK  276  A    between atoms: _705  and  _708
REMARK  277  A    between atoms: _708  and  _709
REMARK                            x       y       z     vdW  Elec       q    Type
REMARK                         _______ _______ _______ _____ _____    ______ ____
ROOT
ATOM      1  CA  SER A   1      -4.809   6.093  32.654  0.00  0.00    +0.163 C 
ENDROOT
BRANCH   1   2
ATOM      2  N   SER A   1      -5.853   5.325  31.967  0.00  0.00    -0.237 NA
ATOM      3  H   SER A   1      -5.571   4.515  31.378  0.00  0.00    +0.142 HD
ENDBRANCH   1   2
BRANCH   1   4
ATOM      4  C   SER A   1      -3.820   6.605  31.608  0.00  0.00    +0.227 C 
ATOM      5  O   SER A   1      -3.315   5.825  30.822  0.00  0.00    -0.287 OA
ENDBRANCH   1   4
BRANCH   1   6
ATOM      6  CB  SER A   1      -4.090   5.223  33.686  0.00  0.00    +0.162 C 
BRANCH   6   7
ATOM      7  OG  SER A   1      -2.831   5.764  34.055  0.00  0.00    -0.380 OA
ATOM      8  H   SER A   1      -2.962   6.664  34.447  0.00  0.00    +0.211 HD
ENDBRANCH   6   7
ENDBRANCH   1   6
TORSDOF 4
REMARK  Name = ../refined-set-2016/4qll/4qll_pocket.pdb
REMARK  277 active torsions:
REMARK  status: ('A' for Active; 'I' for Inactive)
REMARK    1  A    between atoms: _1  and  _3
REMARK    2  A    between atoms: _3  and  _4
REMARK    3  A    between atoms: _3  and  _6
REMARK    4  A    between atoms: _9  and  _11
REMARK    5  A    between atoms: _11  and  _12
REMARK    6  A    between atoms: _11  and  _14
REMARK    7  A    between atoms: _14  and  _15
REMARK    8  A    between atoms: _18  and  _20
REMARK    9  A    between atoms: _20  and  _21
REMARK   10  A    between atoms: _20  and  _23
REMARK   11  A    between atoms: _23  and  _24
REMARK   12  A    between atoms: _26  and  _28
REMARK   13  A    between atoms: _28  and  _29
REMARK   14  A    between atoms: _28  and  _31
REMARK   15  A    between atoms: _31  and  _32
REMARK   16  A    between atoms: _32  and  _33
REMARK   17  A    between atoms: _38  and  _40
REMARK   18  A    between atoms: _40  and  _41
REMARK   19  A    between atoms: _40  and  _43
REMARK   20  A    between atoms: _43  and  _44
REMARK   21  A    between atoms: _44  and  _45
REMARK   22  A    between atoms: _45  and  _46
REMARK   23  A    between atoms: _55  and  _57
REMARK   24  A    between atoms: _57  and  _58
REMARK   25  A    between atoms: _57  and  _60
REMARK   26  A    between atoms: _60  and  _61
REMARK   27  A    between atoms: _66  and  _68
REMARK   28  A    between atoms: _68  and  _69
REMARK   29  A    between atoms: _68  and  _71
REMARK   30  A    between atoms: _71  and  _72
REMARK   31  A    between atoms: _77  and  _78
REMARK   32  A    between atoms: _80  and  _82
REMARK   33  A    between atoms: _82  and  _83
REMARK   34  A    between atoms: _82  and  _85
REMARK   35  A    between atoms: _85  and  _86
REMARK   36  A    between atoms: _91  and  _93
REMARK   37  A    between atoms: _93  and  _94
REMARK   38  A    between atoms: _93  and  _96
REMARK   39  A    between atoms: _96  and  _97
REMARK   40  A    between atoms: _97  and  _98
REMARK   41  A    between atoms: _103  and  _105
REMARK   42  A    between atoms: _105  and  _106
REMARK   43  A    between atoms: _105  and  _108
REMARK   44  A    between atoms: _108  and  _109
REMARK   45  A    between atoms: _109  and  _110
REMARK   46  A    between atoms: _110  and  _111
REMARK   47  A    between atoms: _120  and  _122
REMARK   48  A    between atoms: _122  and  _123
REMARK   49  A    between atoms: _122  and  _125
REMARK   50  A    between atoms: _125  and  _126
REMARK   51  A    between atoms: _129  and  _131
REMARK   52  A    between atoms: _131  and  _132
REMARK   53  A    between atoms: _131  and  _134
REMARK   54  A    between atoms: _134  and  _135
REMARK   55  A    between atoms: _138  and  _140
REMARK   56  A    between atoms: _140  and  _141
REMARK   57  A    between atoms: _140  and  _143
REMARK   58  A    between atoms: _143  and  _144
REMARK   59  A    between atoms: _147  and  _149
REMARK   60  A    between atoms: _149  and  _150
REMARK   61  A    between atoms: _149  and  _152
REMARK   62  A    between atoms: _152  and  _153
REMARK   63  A    between atoms: _156  and  _158
REMARK   64  A    between atoms: _158  and  _159
REMARK   65  A    between atoms: _162  and  _164
REMARK   66  A    between atoms: _164  and  _165
REMARK   67  A    between atoms: _164  and  _167
REMARK   68  A    between atoms: _167  and  _168
REMARK   69  A    between atoms: _171  and  _173
REMARK   70  A    between atoms: _173  and  _174
REMARK   71  A    between atoms: _173  and  _176
REMARK   72  A    between atoms: _176  and  _177
REMARK   73  A    between atoms: _182  and  _184
REMARK   74  A    between atoms: _184  and  _185
REMARK   75  A    between atoms: _184  and  _187
REMARK   76  A    between atoms: _190  and  _192
REMARK   77  A    between atoms: _192  and  _193
REMARK   78  A    between atoms: _192  and  _195
REMARK   79  A    between atoms: _195  and  _196
REMARK   80  A    between atoms: _199  and  _201
REMARK   81  A    between atoms: _201  and  _202
REMARK   82  A    between atoms: _201  and  _204
REMARK   83  A    between atoms: _204  and  _205
REMARK   84  A    between atoms: _208  and  _210
REMARK   85  A    between atoms: _210  and  _211
REMARK   86  A    between atoms: _210  and  _213
REMARK   87  A    between atoms: _213  and  _214
REMARK   88  A    between atoms: _220  and  _222
REMARK   89  A    between atoms: _222  and  _223
REMARK   90  A    between atoms: _222  and  _225
REMARK   91  A    between atoms: _225  and  _226
REMARK   92  A    between atoms: _231  and  _233
REMARK   93  A    between atoms: _233  and  _234
REMARK   94  A    between atoms: _233  and  _236
REMARK   95  A    between atoms: _236  and  _237
REMARK   96  A    between atoms: _247  and  _249
REMARK   97  A    between atoms: _249  and  _250
REMARK   98  A    between atoms: _249  and  _252
REMARK   99  A    between atoms: _252  and  _253
REMARK  100  A    between atoms: _258  and  _259
REMARK  101  A    between atoms: _261  and  _263
REMARK  102  A    between atoms: _263  and  _264
REMARK  103  A    between atoms: _267  and  _269
REMARK  104  A    between atoms: _269  and  _270
REMARK  105  A    between atoms: _269  and  _272
REMARK  106  A    between atoms: _272  and  _273
REMARK  107  A    between atoms: _279  and  _281
REMARK  108  A    between atoms: _281  and  _282
REMARK  109  A    between atoms: _281  and  _284
REMARK  110  A    between atoms: _284  and  _285
REMARK  111  A    between atoms: _290  and  _292
REMARK  112  A    between atoms: _292  and  _293
REMARK  113  A    between atoms: _292  and  _295
REMARK  114  A    between atoms: _295  and  _296
REMARK  115  A    between atoms: _301  and  _303
REMARK  116  A    between atoms: _303  and  _304
REMARK  117  A    between atoms: _303  and  _306
REMARK  118  A    between atoms: _306  and  _307
REMARK  119  A    between atoms: _307  and  _308
REMARK  120  A    between atoms: _313  and  _315
REMARK  121  A    between atoms: _315  and  _316
REMARK  122  A    between atoms: _315  and  _318
REMARK  123  A    between atoms: _318  and  _319
REMARK  124  A    between atoms: _324  and  _325
REMARK  125  A    between atoms: _327  and  _329
REMARK  126  A    between atoms: _329  and  _330
REMARK  127  A    between atoms: _329  and  _332
REMARK  128  A    between atoms: _332  and  _333
REMARK  129  A    between atoms: _336  and  _338
REMARK  130  A    between atoms: _338  and  _339
REMARK  131  A    between atoms: _342  and  _344
REMARK  132  A    between atoms: _344  and  _345
REMARK  133  A    between atoms: _344  and  _347
REMARK  134  A    between atoms: _347  and  _348
REMARK  135  A    between atoms: _350  and  _352
REMARK  136  A    between atoms: _352  and  _353
REMARK  137  A    between atoms: _352  and  _355
REMARK  138  A    between atoms: _355  and  _356
REMARK  139  A    between atoms: _361  and  _362
REMARK  140  A    between atoms: _364  and  _366
REMARK  141  A    between atoms: _366  and  _367
REMARK  142  A    between atoms: _366  and  _369
REMARK  143  A    between atoms: _369  and  _370
REMARK  144  A    between atoms: _370  and  _371
REMARK  145  A    between atoms: _373  and  _375
REMARK  146  A    between atoms: _375  and  _376
REMARK  147  A    between atoms: _375  and  _378
REMARK  148  A    between atoms: _378  and  _379
REMARK  149  A    between atoms: _379  and  _380
REMARK  150  A    between atoms: _380  and  _381
REMARK  151  A    between atoms: _381  and  _382
REMARK  152  A    between atoms: _386  and  _388
REMARK  153  A    between atoms: _388  and  _389
REMARK  154  A    between atoms: _388  and  _391
REMARK  155  A    between atoms: _391  and  _392
REMARK  156  A    between atoms: _397  and  _398
REMARK  157  A    between atoms: _400  and  _402
REMARK  158  A    between atoms: _402  and  _403
REMARK  159  A    between atoms: _402  and  _405
REMARK  160  A    between atoms: _405  and  _406
REMARK  161  A    between atoms: _408  and  _410
REMARK  162  A    between atoms: _410  and  _411
REMARK  163  A    between atoms: _414  and  _416
REMARK  164  A    between atoms: _416  and  _417
REMARK  165  A    between atoms: _416  and  _419
REMARK  166  A    between atoms: _419  and  _420
REMARK  167  A    between atoms: _423  and  _425
REMARK  168  A    between atoms: _425  and  _426
REMARK  169  A    between atoms: _425  and  _428
REMARK  170  A    between atoms: _428  and  _429
REMARK  171  A    between atoms: _439  and  _441
REMARK  172  A    between atoms: _441  and  _442
REMARK  173  A    between atoms: _441  and  _444
REMARK  174  A    between atoms: _444  and  _445
REMARK  175  A    between atoms: _445  and  _446
REMARK  176  A    between atoms: _451  and  _453
REMARK  177  A    between atoms: _453  and  _454
REMARK  178  A    between atoms: _453  and  _456
REMARK  179  A    between atoms: _459  and  _461
REMARK  180  A    between atoms: _461  and  _462
REMARK  181  A    between atoms: _461  and  _464
REMARK  182  A    between atoms: _464  and  _465
REMARK  183  A    between atoms: _468  and  _470
REMARK  184  A    between atoms: _470  and  _471
REMARK  185  A    between atoms: _474  and  _476
REMARK  186  A    between atoms: _476  and  _477
REMARK  187  A    between atoms: _476  and  _479
REMARK  188  A    between atoms: _482  and  _484
REMARK  189  A    between atoms: _484  and  _485
REMARK  190  A    between atoms: _484  and  _487
REMARK  191  A    between atoms: _487  and  _488
REMARK  192  A    between atoms: _494  and  _496
REMARK  193  A    between atoms: _496  and  _497
REMARK  194  A    between atoms: _496  and  _499
REMARK  195  A    between atoms: _499  and  _500
REMARK  196  A    between atoms: _502  and  _504
REMARK  197  A    between atoms: _504  and  _505
REMARK  198  A    between atoms: _504  and  _507
REMARK  199  A    between atoms: _507  and  _508
REMARK  200  A    between atoms: _513  and  _515
REMARK  201  A    between atoms: _515  and  _516
REMARK  202  A    between atoms: _515  and  _518
REMARK  203  A    between atoms: _518  and  _519
REMARK  204  A    between atoms: _529  and  _531
REMARK  205  A    between atoms: _531  and  _532
REMARK  206  A    between atoms: _531  and  _534
REMARK  207  A    between atoms: _534  and  _535
REMARK  208  A    between atoms: _538  and  _540
REMARK  209  A    between atoms: _540  and  _541
REMARK  210  A    between atoms: _540  and  _543
REMARK  211  A    between atoms: _543  and  _544
REMARK  212  A    between atoms: _549  and  _550
REMARK  213  A    between atoms: _552  and  _554
REMARK  214  A    between atoms: _554  and  _555
REMARK  215  A    between atoms: _554  and  _557
REMARK  216  A    between atoms: _557  and  _558
REMARK  217  A    between atoms: _561  and  _563
REMARK  218  A    between atoms: _563  and  _564
REMARK  219  A    between atoms: _563  and  _566
REMARK  220  A    between atoms: _566  and  _567
REMARK  221  A    between atoms: _567  and  _568
REMARK  222  A    between atoms: _571  and  _573
REMARK  223  A    between atoms: _573  and  _574
REMARK  224  A    between atoms: _573  and  _576
REMARK  225  A    between atoms: _576  and  _577
REMARK  226  A    between atoms: _582  and  _584
REMARK  227  A    between atoms: _584  and  _585
REMARK  228  A    between atoms: _587  and  _589
REMARK  229  A    between atoms: _589  and  _590
REMARK  230  A    between atoms: _589  and  _592
REMARK  231  A    between atoms: _592  and  _593
REMARK  232  A    between atoms: _593  and  _594
REMARK  233  A    between atoms: _596  and  _598
REMARK  234  A    between atoms: _598  and  _599
REMARK  235  A    between atoms: _598  and  _601
REMARK  236  A    between atoms: _601  and  _602
REMARK  237  A    between atoms: _605  and  _607
REMARK  238  A    between atoms: _607  and  _608
REMARK  239  A    between atoms: _607  and  _610
REMARK  240  A    between atoms: _610  and  _611
REMARK  241  A    between atoms: _621  and  _623
REMARK  242  A    between atoms: _623  and  _624
REMARK  243  A    between atoms: _623  and  _626
REMARK  244  A    between atoms: _626  and  _627
REMARK  245  A    between atoms: _629  and  _631
REMARK  246  A    between atoms: _631  and  _632
REMARK  247  A    between atoms: _631  and  _634
REMARK  248  A    between atoms: _634  and  _635
REMARK  249  A    between atoms: _640  and  _642
REMARK  250  A    between atoms: _642  and  _643
REMARK  251  A    between atoms: _642  and  _645
REMARK  252  A    between atoms: _645  and  _646
REMARK  253  A    between atoms: _652  and  _654
REMARK  254  A    between atoms: _654  and  _655
REMARK  255  A    between atoms: _654  and  _657
REMARK  256  A    between atoms: _657  and  _658
REMARK  257  A    between atoms: _658  and  _659
REMARK  258  A    between atoms: _662  and  _664
REMARK  259  A    between atoms: _664  and  _665
REMARK  260  A    between atoms: _664  and  _667
REMARK  261  A    between atoms: _667  and  _668
REMARK  262  A    between atoms: _678  and  _680
REMARK  263  A    between atoms: _680  and  _681
REMARK  264  A    between atoms: _680  and  _683
REMARK  265  A    between atoms: _683  and  _684
REMARK  266  A    between atoms: _687  and  _689
REMARK  267  A    between atoms: _689  and  _690
REMARK  268  A    between atoms: _689  and  _692
REMARK  269  A    between atoms: _692  and  _693
REMARK  270  A    between atoms: _695  and  _697
REMARK  271  A    between atoms: _697  and  _698
REMARK  272  A    between atoms: _697  and  _700
REMARK  273  A    between atoms: _700  and  _701
REMARK  274  A    between atoms: _703  and  _705
REMARK  275  A    between atoms: _705  and  _706
REMARK  276  A    between atoms: _705  and  _708
REMARK  277  A    between atoms: _708  and  _709
REMARK                            x       y       z     vdW  Elec       q    Type
REMARK                         _______ _______ _______ _____ _____    ______ ____
ROOT
ATOM      1  CB  PHE A   1       1.709   7.616  32.161  0.00  0.00    +0.051 C 
ENDROOT
BRANCH   1   2
ATOM      2  CG  PHE A   1       1.404   7.236  33.581  0.00  0.00    -0.020 A 
ATOM      3  CD2 PHE A   1       2.070   7.853  34.642  0.00  0.00    -0.004 A 
ATOM      4  CE2 PHE A   1       1.792   7.497  35.960  0.00  0.00    -0.000 A 
ATOM      5  CZ  PHE A   1       0.881   6.487  36.226  0.00  0.00    -0.000 A 
ATOM      6  CE1 PHE A   1       0.218   5.866  35.176  0.00  0.00    -0.000 A 
ATOM      7  CD1 PHE A   1       0.492   6.231  33.864  0.00  0.00    -0.004 A 
ENDBRANCH   1   2
BRANCH   1   8
ATOM      8  CA  PHE A   1       0.952   8.863  31.663  0.00  0.00    +0.137 C 
BRANCH   8   9
ATOM      9  N   PHE A   1      -0.349   8.451  31.078  0.00  0.00    -0.239 NA
ATOM     10  H   PHE A   1      -0.391   7.565  30.534  0.00  0.00    +0.142 HD
ENDBRANCH   8   9
BRANCH   8  11
ATOM     11  C   PHE A   1       1.897   9.646  30.717  0.00  0.00    +0.224 C 
ATOM     12  O   PHE A   1       2.977  10.070  31.122  0.00  0.00    -0.287 OA
ENDBRANCH   8  11
ENDBRANCH   1   8
TORSDOF 4
REMARK  Name = ../refined-set-2016/4qll/4qll_pocket.pdb
REMARK  277 active torsions:
REMARK  status: ('A' for Active; 'I' for Inactive)
REMARK    1  A    between atoms: _1  and  _3
REMARK    2  A    between atoms: _3  and  _4
REMARK    3  A    between atoms: _3  and  _6
REMARK    4  A    between atoms: _9  and  _11
REMARK    5  A    between atoms: _11  and  _12
REMARK    6  A    between atoms: _11  and  _14
REMARK    7  A    between atoms: _14  and  _15
REMARK    8  A    between atoms: _18  and  _20
REMARK    9  A    between atoms: _20  and  _21
REMARK   10  A    between atoms: _20  and  _23
REMARK   11  A    between atoms: _23  and  _24
REMARK   12  A    between atoms: _26  and  _28
REMARK   13  A    between atoms: _28  and  _29
REMARK   14  A    between atoms: _28  and  _31
REMARK   15  A    between atoms: _31  and  _32
REMARK   16  A    between atoms: _32  and  _33
REMARK   17  A    between atoms: _38  and  _40
REMARK   18  A    between atoms: _40  and  _41
REMARK   19  A    between atoms: _40  and  _43
REMARK   20  A    between atoms: _43  and  _44
REMARK   21  A    between atoms: _44  and  _45
REMARK   22  A    between atoms: _45  and  _46
REMARK   23  A    between atoms: _55  and  _57
REMARK   24  A    between atoms: _57  and  _58
REMARK   25  A    between atoms: _57  and  _60
REMARK   26  A    between atoms: _60  and  _61
REMARK   27  A    between atoms: _66  and  _68
REMARK   28  A    between atoms: _68  and  _69
REMARK   29  A    between atoms: _68  and  _71
REMARK   30  A    between atoms: _71  and  _72
REMARK   31  A    between atoms: _77  and  _78
REMARK   32  A    between atoms: _80  and  _82
REMARK   33  A    between atoms: _82  and  _83
REMARK   34  A    between atoms: _82  and  _85
REMARK   35  A    between atoms: _85  and  _86
REMARK   36  A    between atoms: _91  and  _93
REMARK   37  A    between atoms: _93  and  _94
REMARK   38  A    between atoms: _93  and  _96
REMARK   39  A    between atoms: _96  and  _97
REMARK   40  A    between atoms: _97  and  _98
REMARK   41  A    between atoms: _103  and  _105
REMARK   42  A    between atoms: _105  and  _106
REMARK   43  A    between atoms: _105  and  _108
REMARK   44  A    between atoms: _108  and  _109
REMARK   45  A    between atoms: _109  and  _110
REMARK   46  A    between atoms: _110  and  _111
REMARK   47  A    between atoms: _120  and  _122
REMARK   48  A    between atoms: _122  and  _123
REMARK   49  A    between atoms: _122  and  _125
REMARK   50  A    between atoms: _125  and  _126
REMARK   51  A    between atoms: _129  and  _131
REMARK   52  A    between atoms: _131  and  _132
REMARK   53  A    between atoms: _131  and  _134
REMARK   54  A    between atoms: _134  and  _135
REMARK   55  A    between atoms: _138  and  _140
REMARK   56  A    between atoms: _140  and  _141
REMARK   57  A    between atoms: _140  and  _143
REMARK   58  A    between atoms: _143  and  _144
REMARK   59  A    between atoms: _147  and  _149
REMARK   60  A    between atoms: _149  and  _150
REMARK   61  A    between atoms: _149  and  _152
REMARK   62  A    between atoms: _152  and  _153
REMARK   63  A    between atoms: _156  and  _158
REMARK   64  A    between atoms: _158  and  _159
REMARK   65  A    between atoms: _162  and  _164
REMARK   66  A    between atoms: _164  and  _165
REMARK   67  A    between atoms: _164  and  _167
REMARK   68  A    between atoms: _167  and  _168
REMARK   69  A    between atoms: _171  and  _173
REMARK   70  A    between atoms: _173  and  _174
REMARK   71  A    between atoms: _173  and  _176
REMARK   72  A    between atoms: _176  and  _177
REMARK   73  A    between atoms: _182  and  _184
REMARK   74  A    between atoms: _184  and  _185
REMARK   75  A    between atoms: _184  and  _187
REMARK   76  A    between atoms: _190  and  _192
REMARK   77  A    between atoms: _192  and  _193
REMARK   78  A    between atoms: _192  and  _195
REMARK   79  A    between atoms: _195  and  _196
REMARK   80  A    between atoms: _199  and  _201
REMARK   81  A    between atoms: _201  and  _202
REMARK   82  A    between atoms: _201  and  _204
REMARK   83  A    between atoms: _204  and  _205
REMARK   84  A    between atoms: _208  and  _210
REMARK   85  A    between atoms: _210  and  _211
REMARK   86  A    between atoms: _210  and  _213
REMARK   87  A    between atoms: _213  and  _214
REMARK   88  A    between atoms: _220  and  _222
REMARK   89  A    between atoms: _222  and  _223
REMARK   90  A    between atoms: _222  and  _225
REMARK   91  A    between atoms: _225  and  _226
REMARK   92  A    between atoms: _231  and  _233
REMARK   93  A    between atoms: _233  and  _234
REMARK   94  A    between atoms: _233  and  _236
REMARK   95  A    between atoms: _236  and  _237
REMARK   96  A    between atoms: _247  and  _249
REMARK   97  A    between atoms: _249  and  _250
REMARK   98  A    between atoms: _249  and  _252
REMARK   99  A    between atoms: _252  and  _253
REMARK  100  A    between atoms: _258  and  _259
REMARK  101  A    between atoms: _261  and  _263
REMARK  102  A    between atoms: _263  and  _264
REMARK  103  A    between atoms: _267  and  _269
REMARK  104  A    between atoms: _269  and  _270
REMARK  105  A    between atoms: _269  and  _272
REMARK  106  A    between atoms: _272  and  _273
REMARK  107  A    between atoms: _279  and  _281
REMARK  108  A    between atoms: _281  and  _282
REMARK  109  A    between atoms: _281  and  _284
REMARK  110  A    between atoms: _284  and  _285
REMARK  111  A    between atoms: _290  and  _292
REMARK  112  A    between atoms: _292  and  _293
REMARK  113  A    between atoms: _292  and  _295
REMARK  114  A    between atoms: _295  and  _296
REMARK  115  A    between atoms: _301  and  _303
REMARK  116  A    between atoms: _303  and  _304
REMARK  117  A    between atoms: _303  and  _306
REMARK  118  A    between atoms: _306  and  _307
REMARK  119  A    between atoms: _307  and  _308
REMARK  120  A    between atoms: _313  and  _315
REMARK  121  A    between atoms: _315  and  _316
REMARK  122  A    between atoms: _315  and  _318
REMARK  123  A    between atoms: _318  and  _319
REMARK  124  A    between atoms: _324  and  _325
REMARK  125  A    between atoms: _327  and  _329
REMARK  126  A    between atoms: _329  and  _330
REMARK  127  A    between atoms: _329  and  _332
REMARK  128  A    between atoms: _332  and  _333
REMARK  129  A    between atoms: _336  and  _338
REMARK  130  A    between atoms: _338  and  _339
REMARK  131  A    between atoms: _342  and  _344
REMARK  132  A    between atoms: _344  and  _345
REMARK  133  A    between atoms: _344  and  _347
REMARK  134  A    between atoms: _347  and  _348
REMARK  135  A    between atoms: _350  and  _352
REMARK  136  A    between atoms: _352  and  _353
REMARK  137  A    between atoms: _352  and  _355
REMARK  138  A    between atoms: _355  and  _356
REMARK  139  A    between atoms: _361  and  _362
REMARK  140  A    between atoms: _364  and  _366
REMARK  141  A    between atoms: _366  and  _367
REMARK  142  A    between atoms: _366  and  _369
REMARK  143  A    between atoms: _369  and  _370
REMARK  144  A    between atoms: _370  and  _371
REMARK  145  A    between atoms: _373  and  _375
REMARK  146  A    between atoms: _375  and  _376
REMARK  147  A    between atoms: _375  and  _378
REMARK  148  A    between atoms: _378  and  _379
REMARK  149  A    between atoms: _379  and  _380
REMARK  150  A    between atoms: _380  and  _381
REMARK  151  A    between atoms: _381  and  _382
REMARK  152  A    between atoms: _386  and  _388
REMARK  153  A    between atoms: _388  and  _389
REMARK  154  A    between atoms: _388  and  _391
REMARK  155  A    between atoms: _391  and  _392
REMARK  156  A    between atoms: _397  and  _398
REMARK  157  A    between atoms: _400  and  _402
REMARK  158  A    between atoms: _402  and  _403
REMARK  159  A    between atoms: _402  and  _405
REMARK  160  A    between atoms: _405  and  _406
REMARK  161  A    between atoms: _408  and  _410
REMARK  162  A    between atoms: _410  and  _411
REMARK  163  A    between atoms: _414  and  _416
REMARK  164  A    between atoms: _416  and  _417
REMARK  165  A    between atoms: _416  and  _419
REMARK  166  A    between atoms: _419  and  _420
REMARK  167  A    between atoms: _423  and  _425
REMARK  168  A    between atoms: _425  and  _426
REMARK  169  A    between atoms: _425  and  _428
REMARK  170  A    between atoms: _428  and  _429
REMARK  171  A    between atoms: _439  and  _441
REMARK  172  A    between atoms: _441  and  _442
REMARK  173  A    between atoms: _441  and  _444
REMARK  174  A    between atoms: _444  and  _445
REMARK  175  A    between atoms: _445  and  _446
REMARK  176  A    between atoms: _451  and  _453
REMARK  177  A    between atoms: _453  and  _454
REMARK  178  A    between atoms: _453  and  _456
REMARK  179  A    between atoms: _459  and  _461
REMARK  180  A    between atoms: _461  and  _462
REMARK  181  A    between atoms: _461  and  _464
REMARK  182  A    between atoms: _464  and  _465
REMARK  183  A    between atoms: _468  and  _470
REMARK  184  A    between atoms: _470  and  _471
REMARK  185  A    between atoms: _474  and  _476
REMARK  186  A    between atoms: _476  and  _477
REMARK  187  A    between atoms: _476  and  _479
REMARK  188  A    between atoms: _482  and  _484
REMARK  189  A    between atoms: _484  and  _485
REMARK  190  A    between atoms: _484  and  _487
REMARK  191  A    between atoms: _487  and  _488
REMARK  192  A    between atoms: _494  and  _496
REMARK  193  A    between atoms: _496  and  _497
REMARK  194  A    between atoms: _496  and  _499
REMARK  195  A    between atoms: _499  and  _500
REMARK  196  A    between atoms: _502  and  _504
REMARK  197  A    between atoms: _504  and  _505
REMARK  198  A    between atoms: _504  and  _507
REMARK  199  A    between atoms: _507  and  _508
REMARK  200  A    between atoms: _513  and  _515
REMARK  201  A    between atoms: _515  and  _516
REMARK  202  A    between atoms: _515  and  _518
REMARK  203  A    between atoms: _518  and  _519
REMARK  204  A    between atoms: _529  and  _531
REMARK  205  A    between atoms: _531  and  _532
REMARK  206  A    between atoms: _531  and  _534
REMARK  207  A    between atoms: _534  and  _535
REMARK  208  A    between atoms: _538  and  _540
REMARK  209  A    between atoms: _540  and  _541
REMARK  210  A    between atoms: _540  and  _543
REMARK  211  A    between atoms: _543  and  _544
REMARK  212  A    between atoms: _549  and  _550
REMARK  213  A    between atoms: _552  and  _554
REMARK  214  A    between atoms: _554  and  _555
REMARK  215  A    between atoms: _554  and  _557
REMARK  216  A    between atoms: _557  and  _558
REMARK  217  A    between atoms: _561  and  _563
REMARK  218  A    between atoms: _563  and  _564
REMARK  219  A    between atoms: _563  and  _566
REMARK  220  A    between atoms: _566  and  _567
REMARK  221  A    between atoms: _567  and  _568
REMARK  222  A    between atoms: _571  and  _573
REMARK  223  A    between atoms: _573  and  _574
REMARK  224  A    between atoms: _573  and  _576
REMARK  225  A    between atoms: _576  and  _577
REMARK  226  A    between atoms: _582  and  _584
REMARK  227  A    between atoms: _584  and  _585
REMARK  228  A    between atoms: _587  and  _589
REMARK  229  A    between atoms: _589  and  _590
REMARK  230  A    between atoms: _589  and  _592
REMARK  231  A    between atoms: _592  and  _593
REMARK  232  A    between atoms: _593  and  _594
REMARK  233  A    between atoms: _596  and  _598
REMARK  234  A    between atoms: _598  and  _599
REMARK  235  A    between atoms: _598  and  _601
REMARK  236  A    between atoms: _601  and  _602
REMARK  237  A    between atoms: _605  and  _607
REMARK  238  A    between atoms: _607  and  _608
REMARK  239  A    between atoms: _607  and  _610
REMARK  240  A    between atoms: _610  and  _611
REMARK  241  A    between atoms: _621  and  _623
REMARK  242  A    between atoms: _623  and  _624
REMARK  243  A    between atoms: _623  and  _626
REMARK  244  A    between atoms: _626  and  _627
REMARK  245  A    between atoms: _629  and  _631
REMARK  246  A    between atoms: _631  and  _632
REMARK  247  A    between atoms: _631  and  _634
REMARK  248  A    between atoms: _634  and  _635
REMARK  249  A    between atoms: _640  and  _642
REMARK  250  A    between atoms: _642  and  _643
REMARK  251  A    between atoms: _642  and  _645
REMARK  252  A    between atoms: _645  and  _646
REMARK  253  A    between atoms: _652  and  _654
REMARK  254  A    between atoms: _654  and  _655
REMARK  255  A    between atoms: _654  and  _657
REMARK  256  A    between atoms: _657  and  _658
REMARK  257  A    between atoms: _658  and  _659
REMARK  258  A    between atoms: _662  and  _664
REMARK  259  A    between atoms: _664  and  _665
REMARK  260  A    between atoms: _664  and  _667
REMARK  261  A    between atoms: _667  and  _668
REMARK  262  A    between atoms: _678  and  _680
REMARK  263  A    between atoms: _680  and  _681
REMARK  264  A    between atoms: _680  and  _683
REMARK  265  A    between atoms: _683  and  _684
REMARK  266  A    between atoms: _687  and  _689
REMARK  267  A    between atoms: _689  and  _690
REMARK  268  A    between atoms: _689  and  _692
REMARK  269  A    between atoms: _692  and  _693
REMARK  270  A    between atoms: _695  and  _697
REMARK  271  A    between atoms: _697  and  _698
REMARK  272  A    between atoms: _697  and  _700
REMARK  273  A    between atoms: _700  and  _701
REMARK  274  A    between atoms: _703  and  _705
REMARK  275  A    between atoms: _705  and  _706
REMARK  276  A    between atoms: _705  and  _708
REMARK  277  A    between atoms: _708  and  _709
REMARK                            x       y       z     vdW  Elec       q    Type
REMARK                         _______ _______ _______ _____ _____    ______ ____
ROOT
ATOM      1  O   HOH     1      11.380  -3.746  42.626  0.00  0.00    +0.000 OA
ENDROOT
TORSDOF 0
REMARK  Name = ../refined-set-2016/4qll/4qll_pocket.pdb
REMARK  277 active torsions:
REMARK  status: ('A' for Active; 'I' for Inactive)
REMARK    1  A    between atoms: _1  and  _3
REMARK    2  A    between atoms: _3  and  _4
REMARK    3  A    between atoms: _3  and  _6
REMARK    4  A    between atoms: _9  and  _11
REMARK    5  A    between atoms: _11  and  _12
REMARK    6  A    between atoms: _11  and  _14
REMARK    7  A    between atoms: _14  and  _15
REMARK    8  A    between atoms: _18  and  _20
REMARK    9  A    between atoms: _20  and  _21
REMARK   10  A    between atoms: _20  and  _23
REMARK   11  A    between atoms: _23  and  _24
REMARK   12  A    between atoms: _26  and  _28
REMARK   13  A    between atoms: _28  and  _29
REMARK   14  A    between atoms: _28  and  _31
REMARK   15  A    between atoms: _31  and  _32
REMARK   16  A    between atoms: _32  and  _33
REMARK   17  A    between atoms: _38  and  _40
REMARK   18  A    between atoms: _40  and  _41
REMARK   19  A    between atoms: _40  and  _43
REMARK   20  A    between atoms: _43  and  _44
REMARK   21  A    between atoms: _44  and  _45
REMARK   22  A    between atoms: _45  and  _46
REMARK   23  A    between atoms: _55  and  _57
REMARK   24  A    between atoms: _57  and  _58
REMARK   25  A    between atoms: _57  and  _60
REMARK   26  A    between atoms: _60  and  _61
REMARK   27  A    between atoms: _66  and  _68
REMARK   28  A    between atoms: _68  and  _69
REMARK   29  A    between atoms: _68  and  _71
REMARK   30  A    between atoms: _71  and  _72
REMARK   31  A    between atoms: _77  and  _78
REMARK   32  A    between atoms: _80  and  _82
REMARK   33  A    between atoms: _82  and  _83
REMARK   34  A    between atoms: _82  and  _85
REMARK   35  A    between atoms: _85  and  _86
REMARK   36  A    between atoms: _91  and  _93
REMARK   37  A    between atoms: _93  and  _94
REMARK   38  A    between atoms: _93  and  _96
REMARK   39  A    between atoms: _96  and  _97
REMARK   40  A    between atoms: _97  and  _98
REMARK   41  A    between atoms: _103  and  _105
REMARK   42  A    between atoms: _105  and  _106
REMARK   43  A    between atoms: _105  and  _108
REMARK   44  A    between atoms: _108  and  _109
REMARK   45  A    between atoms: _109  and  _110
REMARK   46  A    between atoms: _110  and  _111
REMARK   47  A    between atoms: _120  and  _122
REMARK   48  A    between atoms: _122  and  _123
REMARK   49  A    between atoms: _122  and  _125
REMARK   50  A    between atoms: _125  and  _126
REMARK   51  A    between atoms: _129  and  _131
REMARK   52  A    between atoms: _131  and  _132
REMARK   53  A    between atoms: _131  and  _134
REMARK   54  A    between atoms: _134  and  _135
REMARK   55  A    between atoms: _138  and  _140
REMARK   56  A    between atoms: _140  and  _141
REMARK   57  A    between atoms: _140  and  _143
REMARK   58  A    between atoms: _143  and  _144
REMARK   59  A    between atoms: _147  and  _149
REMARK   60  A    between atoms: _149  and  _150
REMARK   61  A    between atoms: _149  and  _152
REMARK   62  A    between atoms: _152  and  _153
REMARK   63  A    between atoms: _156  and  _158
REMARK   64  A    between atoms: _158  and  _159
REMARK   65  A    between atoms: _162  and  _164
REMARK   66  A    between atoms: _164  and  _165
REMARK   67  A    between atoms: _164  and  _167
REMARK   68  A    between atoms: _167  and  _168
REMARK   69  A    between atoms: _171  and  _173
REMARK   70  A    between atoms: _173  and  _174
REMARK   71  A    between atoms: _173  and  _176
REMARK   72  A    between atoms: _176  and  _177
REMARK   73  A    between atoms: _182  and  _184
REMARK   74  A    between atoms: _184  and  _185
REMARK   75  A    between atoms: _184  and  _187
REMARK   76  A    between atoms: _190  and  _192
REMARK   77  A    between atoms: _192  and  _193
REMARK   78  A    between atoms: _192  and  _195
REMARK   79  A    between atoms: _195  and  _196
REMARK   80  A    between atoms: _199  and  _201
REMARK   81  A    between atoms: _201  and  _202
REMARK   82  A    between atoms: _201  and  _204
REMARK   83  A    between atoms: _204  and  _205
REMARK   84  A    between atoms: _208  and  _210
REMARK   85  A    between atoms: _210  and  _211
REMARK   86  A    between atoms: _210  and  _213
REMARK   87  A    between atoms: _213  and  _214
REMARK   88  A    between atoms: _220  and  _222
REMARK   89  A    between atoms: _222  and  _223
REMARK   90  A    between atoms: _222  and  _225
REMARK   91  A    between atoms: _225  and  _226
REMARK   92  A    between atoms: _231  and  _233
REMARK   93  A    between atoms: _233  and  _234
REMARK   94  A    between atoms: _233  and  _236
REMARK   95  A    between atoms: _236  and  _237
REMARK   96  A    between atoms: _247  and  _249
REMARK   97  A    between atoms: _249  and  _250
REMARK   98  A    between atoms: _249  and  _252
REMARK   99  A    between atoms: _252  and  _253
REMARK  100  A    between atoms: _258  and  _259
REMARK  101  A    between atoms: _261  and  _263
REMARK  102  A    between atoms: _263  and  _264
REMARK  103  A    between atoms: _267  and  _269
REMARK  104  A    between atoms: _269  and  _270
REMARK  105  A    between atoms: _269  and  _272
REMARK  106  A    between atoms: _272  and  _273
REMARK  107  A    between atoms: _279  and  _281
REMARK  108  A    between atoms: _281  and  _282
REMARK  109  A    between atoms: _281  and  _284
REMARK  110  A    between atoms: _284  and  _285
REMARK  111  A    between atoms: _290  and  _292
REMARK  112  A    between atoms: _292  and  _293
REMARK  113  A    between atoms: _292  and  _295
REMARK  114  A    between atoms: _295  and  _296
REMARK  115  A    between atoms: _301  and  _303
REMARK  116  A    between atoms: _303  and  _304
REMARK  117  A    between atoms: _303  and  _306
REMARK  118  A    between atoms: _306  and  _307
REMARK  119  A    between atoms: _307  and  _308
REMARK  120  A    between atoms: _313  and  _315
REMARK  121  A    between atoms: _315  and  _316
REMARK  122  A    between atoms: _315  and  _318
REMARK  123  A    between atoms: _318  and  _319
REMARK  124  A    between atoms: _324  and  _325
REMARK  125  A    between atoms: _327  and  _329
REMARK  126  A    between atoms: _329  and  _330
REMARK  127  A    between atoms: _329  and  _332
REMARK  128  A    between atoms: _332  and  _333
REMARK  129  A    between atoms: _336  and  _338
REMARK  130  A    between atoms: _338  and  _339
REMARK  131  A    between atoms: _342  and  _344
REMARK  132  A    between atoms: _344  and  _345
REMARK  133  A    between atoms: _344  and  _347
REMARK  134  A    between atoms: _347  and  _348
REMARK  135  A    between atoms: _350  and  _352
REMARK  136  A    between atoms: _352  and  _353
REMARK  137  A    between atoms: _352  and  _355
REMARK  138  A    between atoms: _355  and  _356
REMARK  139  A    between atoms: _361  and  _362
REMARK  140  A    between atoms: _364  and  _366
REMARK  141  A    between atoms: _366  and  _367
REMARK  142  A    between atoms: _366  and  _369
REMARK  143  A    between atoms: _369  and  _370
REMARK  144  A    between atoms: _370  and  _371
REMARK  145  A    between atoms: _373  and  _375
REMARK  146  A    between atoms: _375  and  _376
REMARK  147  A    between atoms: _375  and  _378
REMARK  148  A    between atoms: _378  and  _379
REMARK  149  A    between atoms: _379  and  _380
REMARK  150  A    between atoms: _380  and  _381
REMARK  151  A    between atoms: _381  and  _382
REMARK  152  A    between atoms: _386  and  _388
REMARK  153  A    between atoms: _388  and  _389
REMARK  154  A    between atoms: _388  and  _391
REMARK  155  A    between atoms: _391  and  _392
REMARK  156  A    between atoms: _397  and  _398
REMARK  157  A    between atoms: _400  and  _402
REMARK  158  A    between atoms: _402  and  _403
REMARK  159  A    between atoms: _402  and  _405
REMARK  160  A    between atoms: _405  and  _406
REMARK  161  A    between atoms: _408  and  _410
REMARK  162  A    between atoms: _410  and  _411
REMARK  163  A    between atoms: _414  and  _416
REMARK  164  A    between atoms: _416  and  _417
REMARK  165  A    between atoms: _416  and  _419
REMARK  166  A    between atoms: _419  and  _420
REMARK  167  A    between atoms: _423  and  _425
REMARK  168  A    between atoms: _425  and  _426
REMARK  169  A    between atoms: _425  and  _428
REMARK  170  A    between atoms: _428  and  _429
REMARK  171  A    between atoms: _439  and  _441
REMARK  172  A    between atoms: _441  and  _442
REMARK  173  A    between atoms: _441  and  _444
REMARK  174  A    between atoms: _444  and  _445
REMARK  175  A    between atoms: _445  and  _446
REMARK  176  A    between atoms: _451  and  _453
REMARK  177  A    between atoms: _453  and  _454
REMARK  178  A    between atoms: _453  and  _456
REMARK  179  A    between atoms: _459  and  _461
REMARK  180  A    between atoms: _461  and  _462
REMARK  181  A    between atoms: _461  and  _464
REMARK  182  A    between atoms: _464  and  _465
REMARK  183  A    between atoms: _468  and  _470
REMARK  184  A    between atoms: _470  and  _471
REMARK  185  A    between atoms: _474  and  _476
REMARK  186  A    between atoms: _476  and  _477
REMARK  187  A    between atoms: _476  and  _479
REMARK  188  A    between atoms: _482  and  _484
REMARK  189  A    between atoms: _484  and  _485
REMARK  190  A    between atoms: _484  and  _487
REMARK  191  A    between atoms: _487  and  _488
REMARK  192  A    between atoms: _494  and  _496
REMARK  193  A    between atoms: _496  and  _497
REMARK  194  A    between atoms: _496  and  _499
REMARK  195  A    between atoms: _499  and  _500
REMARK  196  A    between atoms: _502  and  _504
REMARK  197  A    between atoms: _504  and  _505
REMARK  198  A    between atoms: _504  and  _507
REMARK  199  A    between atoms: _507  and  _508
REMARK  200  A    between atoms: _513  and  _515
REMARK  201  A    between atoms: _515  and  _516
REMARK  202  A    between atoms: _515  and  _518
REMARK  203  A    between atoms: _518  and  _519
REMARK  204  A    between atoms: _529  and  _531
REMARK  205  A    between atoms: _531  and  _532
REMARK  206  A    between atoms: _531  and  _534
REMARK  207  A    between atoms: _534  and  _535
REMARK  208  A    between atoms: _538  and  _540
REMARK  209  A    between atoms: _540  and  _541
REMARK  210  A    between atoms: _540  and  _543
REMARK  211  A    between atoms: _543  and  _544
REMARK  212  A    between atoms: _549  and  _550
REMARK  213  A    between atoms: _552  and  _554
REMARK  214  A    between atoms: _554  and  _555
REMARK  215  A    between atoms: _554  and  _557
REMARK  216  A    between atoms: _557  and  _558
REMARK  217  A    between atoms: _561  and  _563
REMARK  218  A    between atoms: _563  and  _564
REMARK  219  A    between atoms: _563  and  _566
REMARK  220  A    between atoms: _566  and  _567
REMARK  221  A    between atoms: _567  and  _568
REMARK  222  A    between atoms: _571  and  _573
REMARK  223  A    between atoms: _573  and  _574
REMARK  224  A    between atoms: _573  and  _576
REMARK  225  A    between atoms: _576  and  _577
REMARK  226  A    between atoms: _582  and  _584
REMARK  227  A    between atoms: _584  and  _585
REMARK  228  A    between atoms: _587  and  _589
REMARK  229  A    between atoms: _589  and  _590
REMARK  230  A    between atoms: _589  and  _592
REMARK  231  A    between atoms: _592  and  _593
REMARK  232  A    between atoms: _593  and  _594
REMARK  233  A    between atoms: _596  and  _598
REMARK  234  A    between atoms: _598  and  _599
REMARK  235  A    between atoms: _598  and  _601
REMARK  236  A    between atoms: _601  and  _602
REMARK  237  A    between atoms: _605  and  _607
REMARK  238  A    between atoms: _607  and  _608
REMARK  239  A    between atoms: _607  and  _610
REMARK  240  A    between atoms: _610  and  _611
REMARK  241  A    between atoms: _621  and  _623
REMARK  242  A    between atoms: _623  and  _624
REMARK  243  A    between atoms: _623  and  _626
REMARK  244  A    between atoms: _626  and  _627
REMARK  245  A    between atoms: _629  and  _631
REMARK  246  A    between atoms: _631  and  _632
REMARK  247  A    between atoms: _631  and  _634
REMARK  248  A    between atoms: _634  and  _635
REMARK  249  A    between atoms: _640  and  _642
REMARK  250  A    between atoms: _642  and  _643
REMARK  251  A    between atoms: _642  and  _645
REMARK  252  A    between atoms: _645  and  _646
REMARK  253  A    between atoms: _652  and  _654
REMARK  254  A    between atoms: _654  and  _655
REMARK  255  A    between atoms: _654  and  _657
REMARK  256  A    between atoms: _657  and  _658
REMARK  257  A    between atoms: _658  and  _659
REMARK  258  A    between atoms: _662  and  _664
REMARK  259  A    between atoms: _664  and  _665
REMARK  260  A    between atoms: _664  and  _667
REMARK  261  A    between atoms: _667  and  _668
REMARK  262  A    between atoms: _678  and  _680
REMARK  263  A    between atoms: _680  and  _681
REMARK  264  A    between atoms: _680  and  _683
REMARK  265  A    between atoms: _683  and  _684
REMARK  266  A    between atoms: _687  and  _689
REMARK  267  A    between atoms: _689  and  _690
REMARK  268  A    between atoms: _689  and  _692
REMARK  269  A    between atoms: _692  and  _693
REMARK  270  A    between atoms: _695  and  _697
REMARK  271  A    between atoms: _697  and  _698
REMARK  272  A    between atoms: _697  and  _700
REMARK  273  A    between atoms: _700  and  _701
REMARK  274  A    between atoms: _703  and  _705
REMARK  275  A    between atoms: _705  and  _706
REMARK  276  A    between atoms: _705  and  _708
REMARK  277  A    between atoms: _708  and  _709
REMARK                            x       y       z     vdW  Elec       q    Type
REMARK                         _______ _______ _______ _____ _____    ______ ____
ROOT
ATOM      1  O   HOH     1      -0.535   5.822  29.975  0.00  0.00    +0.000 OA
ENDROOT
TORSDOF 0
REMARK  Name = ../refined-set-2016/4qll/4qll_pocket.pdb
REMARK  277 active torsions:
REMARK  status: ('A' for Active; 'I' for Inactive)
REMARK    1  A    between atoms: _1  and  _3
REMARK    2  A    between atoms: _3  and  _4
REMARK    3  A    between atoms: _3  and  _6
REMARK    4  A    between atoms: _9  and  _11
REMARK    5  A    between atoms: _11  and  _12
REMARK    6  A    between atoms: _11  and  _14
REMARK    7  A    between atoms: _14  and  _15
REMARK    8  A    between atoms: _18  and  _20
REMARK    9  A    between atoms: _20  and  _21
REMARK   10  A    between atoms: _20  and  _23
REMARK   11  A    between atoms: _23  and  _24
REMARK   12  A    between atoms: _26  and  _28
REMARK   13  A    between atoms: _28  and  _29
REMARK   14  A    between atoms: _28  and  _31
REMARK   15  A    between atoms: _31  and  _32
REMARK   16  A    between atoms: _32  and  _33
REMARK   17  A    between atoms: _38  and  _40
REMARK   18  A    between atoms: _40  and  _41
REMARK   19  A    between atoms: _40  and  _43
REMARK   20  A    between atoms: _43  and  _44
REMARK   21  A    between atoms: _44  and  _45
REMARK   22  A    between atoms: _45  and  _46
REMARK   23  A    between atoms: _55  and  _57
REMARK   24  A    between atoms: _57  and  _58
REMARK   25  A    between atoms: _57  and  _60
REMARK   26  A    between atoms: _60  and  _61
REMARK   27  A    between atoms: _66  and  _68
REMARK   28  A    between atoms: _68  and  _69
REMARK   29  A    between atoms: _68  and  _71
REMARK   30  A    between atoms: _71  and  _72
REMARK   31  A    between atoms: _77  and  _78
REMARK   32  A    between atoms: _80  and  _82
REMARK   33  A    between atoms: _82  and  _83
REMARK   34  A    between atoms: _82  and  _85
REMARK   35  A    between atoms: _85  and  _86
REMARK   36  A    between atoms: _91  and  _93
REMARK   37  A    between atoms: _93  and  _94
REMARK   38  A    between atoms: _93  and  _96
REMARK   39  A    between atoms: _96  and  _97
REMARK   40  A    between atoms: _97  and  _98
REMARK   41  A    between atoms: _103  and  _105
REMARK   42  A    between atoms: _105  and  _106
REMARK   43  A    between atoms: _105  and  _108
REMARK   44  A    between atoms: _108  and  _109
REMARK   45  A    between atoms: _109  and  _110
REMARK   46  A    between atoms: _110  and  _111
REMARK   47  A    between atoms: _120  and  _122
REMARK   48  A    between atoms: _122  and  _123
REMARK   49  A    between atoms: _122  and  _125
REMARK   50  A    between atoms: _125  and  _126
REMARK   51  A    between atoms: _129  and  _131
REMARK   52  A    between atoms: _131  and  _132
REMARK   53  A    between atoms: _131  and  _134
REMARK   54  A    between atoms: _134  and  _135
REMARK   55  A    between atoms: _138  and  _140
REMARK   56  A    between atoms: _140  and  _141
REMARK   57  A    between atoms: _140  and  _143
REMARK   58  A    between atoms: _143  and  _144
REMARK   59  A    between atoms: _147  and  _149
REMARK   60  A    between atoms: _149  and  _150
REMARK   61  A    between atoms: _149  and  _152
REMARK   62  A    between atoms: _152  and  _153
REMARK   63  A    between atoms: _156  and  _158
REMARK   64  A    between atoms: _158  and  _159
REMARK   65  A    between atoms: _162  and  _164
REMARK   66  A    between atoms: _164  and  _165
REMARK   67  A    between atoms: _164  and  _167
REMARK   68  A    between atoms: _167  and  _168
REMARK   69  A    between atoms: _171  and  _173
REMARK   70  A    between atoms: _173  and  _174
REMARK   71  A    between atoms: _173  and  _176
REMARK   72  A    between atoms: _176  and  _177
REMARK   73  A    between atoms: _182  and  _184
REMARK   74  A    between atoms: _184  and  _185
REMARK   75  A    between atoms: _184  and  _187
REMARK   76  A    between atoms: _190  and  _192
REMARK   77  A    between atoms: _192  and  _193
REMARK   78  A    between atoms: _192  and  _195
REMARK   79  A    between atoms: _195  and  _196
REMARK   80  A    between atoms: _199  and  _201
REMARK   81  A    between atoms: _201  and  _202
REMARK   82  A    between atoms: _201  and  _204
REMARK   83  A    between atoms: _204  and  _205
REMARK   84  A    between atoms: _208  and  _210
REMARK   85  A    between atoms: _210  and  _211
REMARK   86  A    between atoms: _210  and  _213
REMARK   87  A    between atoms: _213  and  _214
REMARK   88  A    between atoms: _220  and  _222
REMARK   89  A    between atoms: _222  and  _223
REMARK   90  A    between atoms: _222  and  _225
REMARK   91  A    between atoms: _225  and  _226
REMARK   92  A    between atoms: _231  and  _233
REMARK   93  A    between atoms: _233  and  _234
REMARK   94  A    between atoms: _233  and  _236
REMARK   95  A    between atoms: _236  and  _237
REMARK   96  A    between atoms: _247  and  _249
REMARK   97  A    between atoms: _249  and  _250
REMARK   98  A    between atoms: _249  and  _252
REMARK   99  A    between atoms: _252  and  _253
REMARK  100  A    between atoms: _258  and  _259
REMARK  101  A    between atoms: _261  and  _263
REMARK  102  A    between atoms: _263  and  _264
REMARK  103  A    between atoms: _267  and  _269
REMARK  104  A    between atoms: _269  and  _270
REMARK  105  A    between atoms: _269  and  _272
REMARK  106  A    between atoms: _272  and  _273
REMARK  107  A    between atoms: _279  and  _281
REMARK  108  A    between atoms: _281  and  _282
REMARK  109  A    between atoms: _281  and  _284
REMARK  110  A    between atoms: _284  and  _285
REMARK  111  A    between atoms: _290  and  _292
REMARK  112  A    between atoms: _292  and  _293
REMARK  113  A    between atoms: _292  and  _295
REMARK  114  A    between atoms: _295  and  _296
REMARK  115  A    between atoms: _301  and  _303
REMARK  116  A    between atoms: _303  and  _304
REMARK  117  A    between atoms: _303  and  _306
REMARK  118  A    between atoms: _306  and  _307
REMARK  119  A    between atoms: _307  and  _308
REMARK  120  A    between atoms: _313  and  _315
REMARK  121  A    between atoms: _315  and  _316
REMARK  122  A    between atoms: _315  and  _318
REMARK  123  A    between atoms: _318  and  _319
REMARK  124  A    between atoms: _324  and  _325
REMARK  125  A    between atoms: _327  and  _329
REMARK  126  A    between atoms: _329  and  _330
REMARK  127  A    between atoms: _329  and  _332
REMARK  128  A    between atoms: _332  and  _333
REMARK  129  A    between atoms: _336  and  _338
REMARK  130  A    between atoms: _338  and  _339
REMARK  131  A    between atoms: _342  and  _344
REMARK  132  A    between atoms: _344  and  _345
REMARK  133  A    between atoms: _344  and  _347
REMARK  134  A    between atoms: _347  and  _348
REMARK  135  A    between atoms: _350  and  _352
REMARK  136  A    between atoms: _352  and  _353
REMARK  137  A    between atoms: _352  and  _355
REMARK  138  A    between atoms: _355  and  _356
REMARK  139  A    between atoms: _361  and  _362
REMARK  140  A    between atoms: _364  and  _366
REMARK  141  A    between atoms: _366  and  _367
REMARK  142  A    between atoms: _366  and  _369
REMARK  143  A    between atoms: _369  and  _370
REMARK  144  A    between atoms: _370  and  _371
REMARK  145  A    between atoms: _373  and  _375
REMARK  146  A    between atoms: _375  and  _376
REMARK  147  A    between atoms: _375  and  _378
REMARK  148  A    between atoms: _378  and  _379
REMARK  149  A    between atoms: _379  and  _380
REMARK  150  A    between atoms: _380  and  _381
REMARK  151  A    between atoms: _381  and  _382
REMARK  152  A    between atoms: _386  and  _388
REMARK  153  A    between atoms: _388  and  _389
REMARK  154  A    between atoms: _388  and  _391
REMARK  155  A    between atoms: _391  and  _392
REMARK  156  A    between atoms: _397  and  _398
REMARK  157  A    between atoms: _400  and  _402
REMARK  158  A    between atoms: _402  and  _403
REMARK  159  A    between atoms: _402  and  _405
REMARK  160  A    between atoms: _405  and  _406
REMARK  161  A    between atoms: _408  and  _410
REMARK  162  A    between atoms: _410  and  _411
REMARK  163  A    between atoms: _414  and  _416
REMARK  164  A    between atoms: _416  and  _417
REMARK  165  A    between atoms: _416  and  _419
REMARK  166  A    between atoms: _419  and  _420
REMARK  167  A    between atoms: _423  and  _425
REMARK  168  A    between atoms: _425  and  _426
REMARK  169  A    between atoms: _425  and  _428
REMARK  170  A    between atoms: _428  and  _429
REMARK  171  A    between atoms: _439  and  _441
REMARK  172  A    between atoms: _441  and  _442
REMARK  173  A    between atoms: _441  and  _444
REMARK  174  A    between atoms: _444  and  _445
REMARK  175  A    between atoms: _445  and  _446
REMARK  176  A    between atoms: _451  and  _453
REMARK  177  A    between atoms: _453  and  _454
REMARK  178  A    between atoms: _453  and  _456
REMARK  179  A    between atoms: _459  and  _461
REMARK  180  A    between atoms: _461  and  _462
REMARK  181  A    between atoms: _461  and  _464
REMARK  182  A    between atoms: _464  and  _465
REMARK  183  A    between atoms: _468  and  _470
REMARK  184  A    between atoms: _470  and  _471
REMARK  185  A    between atoms: _474  and  _476
REMARK  186  A    between atoms: _476  and  _477
REMARK  187  A    between atoms: _476  and  _479
REMARK  188  A    between atoms: _482  and  _484
REMARK  189  A    between atoms: _484  and  _485
REMARK  190  A    between atoms: _484  and  _487
REMARK  191  A    between atoms: _487  and  _488
REMARK  192  A    between atoms: _494  and  _496
REMARK  193  A    between atoms: _496  and  _497
REMARK  194  A    between atoms: _496  and  _499
REMARK  195  A    between atoms: _499  and  _500
REMARK  196  A    between atoms: _502  and  _504
REMARK  197  A    between atoms: _504  and  _505
REMARK  198  A    between atoms: _504  and  _507
REMARK  199  A    between atoms: _507  and  _508
REMARK  200  A    between atoms: _513  and  _515
REMARK  201  A    between atoms: _515  and  _516
REMARK  202  A    between atoms: _515  and  _518
REMARK  203  A    between atoms: _518  and  _519
REMARK  204  A    between atoms: _529  and  _531
REMARK  205  A    between atoms: _531  and  _532
REMARK  206  A    between atoms: _531  and  _534
REMARK  207  A    between atoms: _534  and  _535
REMARK  208  A    between atoms: _538  and  _540
REMARK  209  A    between atoms: _540  and  _541
REMARK  210  A    between atoms: _540  and  _543
REMARK  211  A    between atoms: _543  and  _544
REMARK  212  A    between atoms: _549  and  _550
REMARK  213  A    between atoms: _552  and  _554
REMARK  214  A    between atoms: _554  and  _555
REMARK  215  A    between atoms: _554  and  _557
REMARK  216  A    between atoms: _557  and  _558
REMARK  217  A    between atoms: _561  and  _563
REMARK  218  A    between atoms: _563  and  _564
REMARK  219  A    between atoms: _563  and  _566
REMARK  220  A    between atoms: _566  and  _567
REMARK  221  A    between atoms: _567  and  _568
REMARK  222  A    between atoms: _571  and  _573
REMARK  223  A    between atoms: _573  and  _574
REMARK  224  A    between atoms: _573  and  _576
REMARK  225  A    between atoms: _576  and  _577
REMARK  226  A    between atoms: _582  and  _584
REMARK  227  A    between atoms: _584  and  _585
REMARK  228  A    between atoms: _587  and  _589
REMARK  229  A    between atoms: _589  and  _590
REMARK  230  A    between atoms: _589  and  _592
REMARK  231  A    between atoms: _592  and  _593
REMARK  232  A    between atoms: _593  and  _594
REMARK  233  A    between atoms: _596  and  _598
REMARK  234  A    between atoms: _598  and  _599
REMARK  235  A    between atoms: _598  and  _601
REMARK  236  A    between atoms: _601  and  _602
REMARK  237  A    between atoms: _605  and  _607
REMARK  238  A    between atoms: _607  and  _608
REMARK  239  A    between atoms: _607  and  _610
REMARK  240  A    between atoms: _610  and  _611
REMARK  241  A    between atoms: _621  and  _623
REMARK  242  A    between atoms: _623  and  _624
REMARK  243  A    between atoms: _623  and  _626
REMARK  244  A    between atoms: _626  and  _627
REMARK  245  A    between atoms: _629  and  _631
REMARK  246  A    between atoms: _631  and  _632
REMARK  247  A    between atoms: _631  and  _634
REMARK  248  A    between atoms: _634  and  _635
REMARK  249  A    between atoms: _640  and  _642
REMARK  250  A    between atoms: _642  and  _643
REMARK  251  A    between atoms: _642  and  _645
REMARK  252  A    between atoms: _645  and  _646
REMARK  253  A    between atoms: _652  and  _654
REMARK  254  A    between atoms: _654  and  _655
REMARK  255  A    between atoms: _654  and  _657
REMARK  256  A    between atoms: _657  and  _658
REMARK  257  A    between atoms: _658  and  _659
REMARK  258  A    between atoms: _662  and  _664
REMARK  259  A    between atoms: _664  and  _665
REMARK  260  A    between atoms: _664  and  _667
REMARK  261  A    between atoms: _667  and  _668
REMARK  262  A    between atoms: _678  and  _680
REMARK  263  A    between atoms: _680  and  _681
REMARK  264  A    between atoms: _680  and  _683
REMARK  265  A    between atoms: _683  and  _684
REMARK  266  A    between atoms: _687  and  _689
REMARK  267  A    between atoms: _689  and  _690
REMARK  268  A    between atoms: _689  and  _692
REMARK  269  A    between atoms: _692  and  _693
REMARK  270  A    between atoms: _695  and  _697
REMARK  271  A    between atoms: _697  and  _698
REMARK  272  A    between atoms: _697  and  _700
REMARK  273  A    between atoms: _700  and  _701
REMARK  274  A    between atoms: _703  and  _705
REMARK  275  A    between atoms: _705  and  _706
REMARK  276  A    between atoms: _705  and  _708
REMARK  277  A    between atoms: _708  and  _709
REMARK                            x       y       z     vdW  Elec       q    Type
REMARK                         _______ _______ _______ _____ _____    ______ ____
ROOT
ATOM      1  O   HOH     1       1.207   4.207  31.318  0.00  0.00    +0.000 OA
ENDROOT
TORSDOF 0
REMARK  Name = ../refined-set-2016/4qll/4qll_pocket.pdb
REMARK  277 active torsions:
REMARK  status: ('A' for Active; 'I' for Inactive)
REMARK    1  A    between atoms: _1  and  _3
REMARK    2  A    between atoms: _3  and  _4
REMARK    3  A    between atoms: _3  and  _6
REMARK    4  A    between atoms: _9  and  _11
REMARK    5  A    between atoms: _11  and  _12
REMARK    6  A    between atoms: _11  and  _14
REMARK    7  A    between atoms: _14  and  _15
REMARK    8  A    between atoms: _18  and  _20
REMARK    9  A    between atoms: _20  and  _21
REMARK   10  A    between atoms: _20  and  _23
REMARK   11  A    between atoms: _23  and  _24
REMARK   12  A    between atoms: _26  and  _28
REMARK   13  A    between atoms: _28  and  _29
REMARK   14  A    between atoms: _28  and  _31
REMARK   15  A    between atoms: _31  and  _32
REMARK   16  A    between atoms: _32  and  _33
REMARK   17  A    between atoms: _38  and  _40
REMARK   18  A    between atoms: _40  and  _41
REMARK   19  A    between atoms: _40  and  _43
REMARK   20  A    between atoms: _43  and  _44
REMARK   21  A    between atoms: _44  and  _45
REMARK   22  A    between atoms: _45  and  _46
REMARK   23  A    between atoms: _55  and  _57
REMARK   24  A    between atoms: _57  and  _58
REMARK   25  A    between atoms: _57  and  _60
REMARK   26  A    between atoms: _60  and  _61
REMARK   27  A    between atoms: _66  and  _68
REMARK   28  A    between atoms: _68  and  _69
REMARK   29  A    between atoms: _68  and  _71
REMARK   30  A    between atoms: _71  and  _72
REMARK   31  A    between atoms: _77  and  _78
REMARK   32  A    between atoms: _80  and  _82
REMARK   33  A    between atoms: _82  and  _83
REMARK   34  A    between atoms: _82  and  _85
REMARK   35  A    between atoms: _85  and  _86
REMARK   36  A    between atoms: _91  and  _93
REMARK   37  A    between atoms: _93  and  _94
REMARK   38  A    between atoms: _93  and  _96
REMARK   39  A    between atoms: _96  and  _97
REMARK   40  A    between atoms: _97  and  _98
REMARK   41  A    between atoms: _103  and  _105
REMARK   42  A    between atoms: _105  and  _106
REMARK   43  A    between atoms: _105  and  _108
REMARK   44  A    between atoms: _108  and  _109
REMARK   45  A    between atoms: _109  and  _110
REMARK   46  A    between atoms: _110  and  _111
REMARK   47  A    between atoms: _120  and  _122
REMARK   48  A    between atoms: _122  and  _123
REMARK   49  A    between atoms: _122  and  _125
REMARK   50  A    between atoms: _125  and  _126
REMARK   51  A    between atoms: _129  and  _131
REMARK   52  A    between atoms: _131  and  _132
REMARK   53  A    between atoms: _131  and  _134
REMARK   54  A    between atoms: _134  and  _135
REMARK   55  A    between atoms: _138  and  _140
REMARK   56  A    between atoms: _140  and  _141
REMARK   57  A    between atoms: _140  and  _143
REMARK   58  A    between atoms: _143  and  _144
REMARK   59  A    between atoms: _147  and  _149
REMARK   60  A    between atoms: _149  and  _150
REMARK   61  A    between atoms: _149  and  _152
REMARK   62  A    between atoms: _152  and  _153
REMARK   63  A    between atoms: _156  and  _158
REMARK   64  A    between atoms: _158  and  _159
REMARK   65  A    between atoms: _162  and  _164
REMARK   66  A    between atoms: _164  and  _165
REMARK   67  A    between atoms: _164  and  _167
REMARK   68  A    between atoms: _167  and  _168
REMARK   69  A    between atoms: _171  and  _173
REMARK   70  A    between atoms: _173  and  _174
REMARK   71  A    between atoms: _173  and  _176
REMARK   72  A    between atoms: _176  and  _177
REMARK   73  A    between atoms: _182  and  _184
REMARK   74  A    between atoms: _184  and  _185
REMARK   75  A    between atoms: _184  and  _187
REMARK   76  A    between atoms: _190  and  _192
REMARK   77  A    between atoms: _192  and  _193
REMARK   78  A    between atoms: _192  and  _195
REMARK   79  A    between atoms: _195  and  _196
REMARK   80  A    between atoms: _199  and  _201
REMARK   81  A    between atoms: _201  and  _202
REMARK   82  A    between atoms: _201  and  _204
REMARK   83  A    between atoms: _204  and  _205
REMARK   84  A    between atoms: _208  and  _210
REMARK   85  A    between atoms: _210  and  _211
REMARK   86  A    between atoms: _210  and  _213
REMARK   87  A    between atoms: _213  and  _214
REMARK   88  A    between atoms: _220  and  _222
REMARK   89  A    between atoms: _222  and  _223
REMARK   90  A    between atoms: _222  and  _225
REMARK   91  A    between atoms: _225  and  _226
REMARK   92  A    between atoms: _231  and  _233
REMARK   93  A    between atoms: _233  and  _234
REMARK   94  A    between atoms: _233  and  _236
REMARK   95  A    between atoms: _236  and  _237
REMARK   96  A    between atoms: _247  and  _249
REMARK   97  A    between atoms: _249  and  _250
REMARK   98  A    between atoms: _249  and  _252
REMARK   99  A    between atoms: _252  and  _253
REMARK  100  A    between atoms: _258  and  _259
REMARK  101  A    between atoms: _261  and  _263
REMARK  102  A    between atoms: _263  and  _264
REMARK  103  A    between atoms: _267  and  _269
REMARK  104  A    between atoms: _269  and  _270
REMARK  105  A    between atoms: _269  and  _272
REMARK  106  A    between atoms: _272  and  _273
REMARK  107  A    between atoms: _279  and  _281
REMARK  108  A    between atoms: _281  and  _282
REMARK  109  A    between atoms: _281  and  _284
REMARK  110  A    between atoms: _284  and  _285
REMARK  111  A    between atoms: _290  and  _292
REMARK  112  A    between atoms: _292  and  _293
REMARK  113  A    between atoms: _292  and  _295
REMARK  114  A    between atoms: _295  and  _296
REMARK  115  A    between atoms: _301  and  _303
REMARK  116  A    between atoms: _303  and  _304
REMARK  117  A    between atoms: _303  and  _306
REMARK  118  A    between atoms: _306  and  _307
REMARK  119  A    between atoms: _307  and  _308
REMARK  120  A    between atoms: _313  and  _315
REMARK  121  A    between atoms: _315  and  _316
REMARK  122  A    between atoms: _315  and  _318
REMARK  123  A    between atoms: _318  and  _319
REMARK  124  A    between atoms: _324  and  _325
REMARK  125  A    between atoms: _327  and  _329
REMARK  126  A    between atoms: _329  and  _330
REMARK  127  A    between atoms: _329  and  _332
REMARK  128  A    between atoms: _332  and  _333
REMARK  129  A    between atoms: _336  and  _338
REMARK  130  A    between atoms: _338  and  _339
REMARK  131  A    between atoms: _342  and  _344
REMARK  132  A    between atoms: _344  and  _345
REMARK  133  A    between atoms: _344  and  _347
REMARK  134  A    between atoms: _347  and  _348
REMARK  135  A    between atoms: _350  and  _352
REMARK  136  A    between atoms: _352  and  _353
REMARK  137  A    between atoms: _352  and  _355
REMARK  138  A    between atoms: _355  and  _356
REMARK  139  A    between atoms: _361  and  _362
REMARK  140  A    between atoms: _364  and  _366
REMARK  141  A    between atoms: _366  and  _367
REMARK  142  A    between atoms: _366  and  _369
REMARK  143  A    between atoms: _369  and  _370
REMARK  144  A    between atoms: _370  and  _371
REMARK  145  A    between atoms: _373  and  _375
REMARK  146  A    between atoms: _375  and  _376
REMARK  147  A    between atoms: _375  and  _378
REMARK  148  A    between atoms: _378  and  _379
REMARK  149  A    between atoms: _379  and  _380
REMARK  150  A    between atoms: _380  and  _381
REMARK  151  A    between atoms: _381  and  _382
REMARK  152  A    between atoms: _386  and  _388
REMARK  153  A    between atoms: _388  and  _389
REMARK  154  A    between atoms: _388  and  _391
REMARK  155  A    between atoms: _391  and  _392
REMARK  156  A    between atoms: _397  and  _398
REMARK  157  A    between atoms: _400  and  _402
REMARK  158  A    between atoms: _402  and  _403
REMARK  159  A    between atoms: _402  and  _405
REMARK  160  A    between atoms: _405  and  _406
REMARK  161  A    between atoms: _408  and  _410
REMARK  162  A    between atoms: _410  and  _411
REMARK  163  A    between atoms: _414  and  _416
REMARK  164  A    between atoms: _416  and  _417
REMARK  165  A    between atoms: _416  and  _419
REMARK  166  A    between atoms: _419  and  _420
REMARK  167  A    between atoms: _423  and  _425
REMARK  168  A    between atoms: _425  and  _426
REMARK  169  A    between atoms: _425  and  _428
REMARK  170  A    between atoms: _428  and  _429
REMARK  171  A    between atoms: _439  and  _441
REMARK  172  A    between atoms: _441  and  _442
REMARK  173  A    between atoms: _441  and  _444
REMARK  174  A    between atoms: _444  and  _445
REMARK  175  A    between atoms: _445  and  _446
REMARK  176  A    between atoms: _451  and  _453
REMARK  177  A    between atoms: _453  and  _454
REMARK  178  A    between atoms: _453  and  _456
REMARK  179  A    between atoms: _459  and  _461
REMARK  180  A    between atoms: _461  and  _462
REMARK  181  A    between atoms: _461  and  _464
REMARK  182  A    between atoms: _464  and  _465
REMARK  183  A    between atoms: _468  and  _470
REMARK  184  A    between atoms: _470  and  _471
REMARK  185  A    between atoms: _474  and  _476
REMARK  186  A    between atoms: _476  and  _477
REMARK  187  A    between atoms: _476  and  _479
REMARK  188  A    between atoms: _482  and  _484
REMARK  189  A    between atoms: _484  and  _485
REMARK  190  A    between atoms: _484  and  _487
REMARK  191  A    between atoms: _487  and  _488
REMARK  192  A    between atoms: _494  and  _496
REMARK  193  A    between atoms: _496  and  _497
REMARK  194  A    between atoms: _496  and  _499
REMARK  195  A    between atoms: _499  and  _500
REMARK  196  A    between atoms: _502  and  _504
REMARK  197  A    between atoms: _504  and  _505
REMARK  198  A    between atoms: _504  and  _507
REMARK  199  A    between atoms: _507  and  _508
REMARK  200  A    between atoms: _513  and  _515
REMARK  201  A    between atoms: _515  and  _516
REMARK  202  A    between atoms: _515  and  _518
REMARK  203  A    between atoms: _518  and  _519
REMARK  204  A    between atoms: _529  and  _531
REMARK  205  A    between atoms: _531  and  _532
REMARK  206  A    between atoms: _531  and  _534
REMARK  207  A    between atoms: _534  and  _535
REMARK  208  A    between atoms: _538  and  _540
REMARK  209  A    between atoms: _540  and  _541
REMARK  210  A    between atoms: _540  and  _543
REMARK  211  A    between atoms: _543  and  _544
REMARK  212  A    between atoms: _549  and  _550
REMARK  213  A    between atoms: _552  and  _554
REMARK  214  A    between atoms: _554  and  _555
REMARK  215  A    between atoms: _554  and  _557
REMARK  216  A    between atoms: _557  and  _558
REMARK  217  A    between atoms: _561  and  _563
REMARK  218  A    between atoms: _563  and  _564
REMARK  219  A    between atoms: _563  and  _566
REMARK  220  A    between atoms: _566  and  _567
REMARK  221  A    between atoms: _567  and  _568
REMARK  222  A    between atoms: _571  and  _573
REMARK  223  A    between atoms: _573  and  _574
REMARK  224  A    between atoms: _573  and  _576
REMARK  225  A    between atoms: _576  and  _577
REMARK  226  A    between atoms: _582  and  _584
REMARK  227  A    between atoms: _584  and  _585
REMARK  228  A    between atoms: _587  and  _589
REMARK  229  A    between atoms: _589  and  _590
REMARK  230  A    between atoms: _589  and  _592
REMARK  231  A    between atoms: _592  and  _593
REMARK  232  A    between atoms: _593  and  _594
REMARK  233  A    between atoms: _596  and  _598
REMARK  234  A    between atoms: _598  and  _599
REMARK  235  A    between atoms: _598  and  _601
REMARK  236  A    between atoms: _601  and  _602
REMARK  237  A    between atoms: _605  and  _607
REMARK  238  A    between atoms: _607  and  _608
REMARK  239  A    between atoms: _607  and  _610
REMARK  240  A    between atoms: _610  and  _611
REMARK  241  A    between atoms: _621  and  _623
REMARK  242  A    between atoms: _623  and  _624
REMARK  243  A    between atoms: _623  and  _626
REMARK  244  A    between atoms: _626  and  _627
REMARK  245  A    between atoms: _629  and  _631
REMARK  246  A    between atoms: _631  and  _632
REMARK  247  A    between atoms: _631  and  _634
REMARK  248  A    between atoms: _634  and  _635
REMARK  249  A    between atoms: _640  and  _642
REMARK  250  A    between atoms: _642  and  _643
REMARK  251  A    between atoms: _642  and  _645
REMARK  252  A    between atoms: _645  and  _646
REMARK  253  A    between atoms: _652  and  _654
REMARK  254  A    between atoms: _654  and  _655
REMARK  255  A    between atoms: _654  and  _657
REMARK  256  A    between atoms: _657  and  _658
REMARK  257  A    between atoms: _658  and  _659
REMARK  258  A    between atoms: _662  and  _664
REMARK  259  A    between atoms: _664  and  _665
REMARK  260  A    between atoms: _664  and  _667
REMARK  261  A    between atoms: _667  and  _668
REMARK  262  A    between atoms: _678  and  _680
REMARK  263  A    between atoms: _680  and  _681
REMARK  264  A    between atoms: _680  and  _683
REMARK  265  A    between atoms: _683  and  _684
REMARK  266  A    between atoms: _687  and  _689
REMARK  267  A    between atoms: _689  and  _690
REMARK  268  A    between atoms: _689  and  _692
REMARK  269  A    between atoms: _692  and  _693
REMARK  270  A    between atoms: _695  and  _697
REMARK  271  A    between atoms: _697  and  _698
REMARK  272  A    between atoms: _697  and  _700
REMARK  273  A    between atoms: _700  and  _701
REMARK  274  A    between atoms: _703  and  _705
REMARK  275  A    between atoms: _705  and  _706
REMARK  276  A    between atoms: _705  and  _708
REMARK  277  A    between atoms: _708  and  _709
REMARK                            x       y       z     vdW  Elec       q    Type
REMARK                         _______ _______ _______ _____ _____    ______ ____
ROOT
ATOM      1  O   HOH     1       3.202  -1.884  37.207  0.00  0.00    +0.000 OA
ENDROOT
TORSDOF 0
REMARK  Name = ../refined-set-2016/4qll/4qll_pocket.pdb
REMARK  277 active torsions:
REMARK  status: ('A' for Active; 'I' for Inactive)
REMARK    1  A    between atoms: _1  and  _3
REMARK    2  A    between atoms: _3  and  _4
REMARK    3  A    between atoms: _3  and  _6
REMARK    4  A    between atoms: _9  and  _11
REMARK    5  A    between atoms: _11  and  _12
REMARK    6  A    between atoms: _11  and  _14
REMARK    7  A    between atoms: _14  and  _15
REMARK    8  A    between atoms: _18  and  _20
REMARK    9  A    between atoms: _20  and  _21
REMARK   10  A    between atoms: _20  and  _23
REMARK   11  A    between atoms: _23  and  _24
REMARK   12  A    between atoms: _26  and  _28
REMARK   13  A    between atoms: _28  and  _29
REMARK   14  A    between atoms: _28  and  _31
REMARK   15  A    between atoms: _31  and  _32
REMARK   16  A    between atoms: _32  and  _33
REMARK   17  A    between atoms: _38  and  _40
REMARK   18  A    between atoms: _40  and  _41
REMARK   19  A    between atoms: _40  and  _43
REMARK   20  A    between atoms: _43  and  _44
REMARK   21  A    between atoms: _44  and  _45
REMARK   22  A    between atoms: _45  and  _46
REMARK   23  A    between atoms: _55  and  _57
REMARK   24  A    between atoms: _57  and  _58
REMARK   25  A    between atoms: _57  and  _60
REMARK   26  A    between atoms: _60  and  _61
REMARK   27  A    between atoms: _66  and  _68
REMARK   28  A    between atoms: _68  and  _69
REMARK   29  A    between atoms: _68  and  _71
REMARK   30  A    between atoms: _71  and  _72
REMARK   31  A    between atoms: _77  and  _78
REMARK   32  A    between atoms: _80  and  _82
REMARK   33  A    between atoms: _82  and  _83
REMARK   34  A    between atoms: _82  and  _85
REMARK   35  A    between atoms: _85  and  _86
REMARK   36  A    between atoms: _91  and  _93
REMARK   37  A    between atoms: _93  and  _94
REMARK   38  A    between atoms: _93  and  _96
REMARK   39  A    between atoms: _96  and  _97
REMARK   40  A    between atoms: _97  and  _98
REMARK   41  A    between atoms: _103  and  _105
REMARK   42  A    between atoms: _105  and  _106
REMARK   43  A    between atoms: _105  and  _108
REMARK   44  A    between atoms: _108  and  _109
REMARK   45  A    between atoms: _109  and  _110
REMARK   46  A    between atoms: _110  and  _111
REMARK   47  A    between atoms: _120  and  _122
REMARK   48  A    between atoms: _122  and  _123
REMARK   49  A    between atoms: _122  and  _125
REMARK   50  A    between atoms: _125  and  _126
REMARK   51  A    between atoms: _129  and  _131
REMARK   52  A    between atoms: _131  and  _132
REMARK   53  A    between atoms: _131  and  _134
REMARK   54  A    between atoms: _134  and  _135
REMARK   55  A    between atoms: _138  and  _140
REMARK   56  A    between atoms: _140  and  _141
REMARK   57  A    between atoms: _140  and  _143
REMARK   58  A    between atoms: _143  and  _144
REMARK   59  A    between atoms: _147  and  _149
REMARK   60  A    between atoms: _149  and  _150
REMARK   61  A    between atoms: _149  and  _152
REMARK   62  A    between atoms: _152  and  _153
REMARK   63  A    between atoms: _156  and  _158
REMARK   64  A    between atoms: _158  and  _159
REMARK   65  A    between atoms: _162  and  _164
REMARK   66  A    between atoms: _164  and  _165
REMARK   67  A    between atoms: _164  and  _167
REMARK   68  A    between atoms: _167  and  _168
REMARK   69  A    between atoms: _171  and  _173
REMARK   70  A    between atoms: _173  and  _174
REMARK   71  A    between atoms: _173  and  _176
REMARK   72  A    between atoms: _176  and  _177
REMARK   73  A    between atoms: _182  and  _184
REMARK   74  A    between atoms: _184  and  _185
REMARK   75  A    between atoms: _184  and  _187
REMARK   76  A    between atoms: _190  and  _192
REMARK   77  A    between atoms: _192  and  _193
REMARK   78  A    between atoms: _192  and  _195
REMARK   79  A    between atoms: _195  and  _196
REMARK   80  A    between atoms: _199  and  _201
REMARK   81  A    between atoms: _201  and  _202
REMARK   82  A    between atoms: _201  and  _204
REMARK   83  A    between atoms: _204  and  _205
REMARK   84  A    between atoms: _208  and  _210
REMARK   85  A    between atoms: _210  and  _211
REMARK   86  A    between atoms: _210  and  _213
REMARK   87  A    between atoms: _213  and  _214
REMARK   88  A    between atoms: _220  and  _222
REMARK   89  A    between atoms: _222  and  _223
REMARK   90  A    between atoms: _222  and  _225
REMARK   91  A    between atoms: _225  and  _226
REMARK   92  A    between atoms: _231  and  _233
REMARK   93  A    between atoms: _233  and  _234
REMARK   94  A    between atoms: _233  and  _236
REMARK   95  A    between atoms: _236  and  _237
REMARK   96  A    between atoms: _247  and  _249
REMARK   97  A    between atoms: _249  and  _250
REMARK   98  A    between atoms: _249  and  _252
REMARK   99  A    between atoms: _252  and  _253
REMARK  100  A    between atoms: _258  and  _259
REMARK  101  A    between atoms: _261  and  _263
REMARK  102  A    between atoms: _263  and  _264
REMARK  103  A    between atoms: _267  and  _269
REMARK  104  A    between atoms: _269  and  _270
REMARK  105  A    between atoms: _269  and  _272
REMARK  106  A    between atoms: _272  and  _273
REMARK  107  A    between atoms: _279  and  _281
REMARK  108  A    between atoms: _281  and  _282
REMARK  109  A    between atoms: _281  and  _284
REMARK  110  A    between atoms: _284  and  _285
REMARK  111  A    between atoms: _290  and  _292
REMARK  112  A    between atoms: _292  and  _293
REMARK  113  A    between atoms: _292  and  _295
REMARK  114  A    between atoms: _295  and  _296
REMARK  115  A    between atoms: _301  and  _303
REMARK  116  A    between atoms: _303  and  _304
REMARK  117  A    between atoms: _303  and  _306
REMARK  118  A    between atoms: _306  and  _307
REMARK  119  A    between atoms: _307  and  _308
REMARK  120  A    between atoms: _313  and  _315
REMARK  121  A    between atoms: _315  and  _316
REMARK  122  A    between atoms: _315  and  _318
REMARK  123  A    between atoms: _318  and  _319
REMARK  124  A    between atoms: _324  and  _325
REMARK  125  A    between atoms: _327  and  _329
REMARK  126  A    between atoms: _329  and  _330
REMARK  127  A    between atoms: _329  and  _332
REMARK  128  A    between atoms: _332  and  _333
REMARK  129  A    between atoms: _336  and  _338
REMARK  130  A    between atoms: _338  and  _339
REMARK  131  A    between atoms: _342  and  _344
REMARK  132  A    between atoms: _344  and  _345
REMARK  133  A    between atoms: _344  and  _347
REMARK  134  A    between atoms: _347  and  _348
REMARK  135  A    between atoms: _350  and  _352
REMARK  136  A    between atoms: _352  and  _353
REMARK  137  A    between atoms: _352  and  _355
REMARK  138  A    between atoms: _355  and  _356
REMARK  139  A    between atoms: _361  and  _362
REMARK  140  A    between atoms: _364  and  _366
REMARK  141  A    between atoms: _366  and  _367
REMARK  142  A    between atoms: _366  and  _369
REMARK  143  A    between atoms: _369  and  _370
REMARK  144  A    between atoms: _370  and  _371
REMARK  145  A    between atoms: _373  and  _375
REMARK  146  A    between atoms: _375  and  _376
REMARK  147  A    between atoms: _375  and  _378
REMARK  148  A    between atoms: _378  and  _379
REMARK  149  A    between atoms: _379  and  _380
REMARK  150  A    between atoms: _380  and  _381
REMARK  151  A    between atoms: _381  and  _382
REMARK  152  A    between atoms: _386  and  _388
REMARK  153  A    between atoms: _388  and  _389
REMARK  154  A    between atoms: _388  and  _391
REMARK  155  A    between atoms: _391  and  _392
REMARK  156  A    between atoms: _397  and  _398
REMARK  157  A    between atoms: _400  and  _402
REMARK  158  A    between atoms: _402  and  _403
REMARK  159  A    between atoms: _402  and  _405
REMARK  160  A    between atoms: _405  and  _406
REMARK  161  A    between atoms: _408  and  _410
REMARK  162  A    between atoms: _410  and  _411
REMARK  163  A    between atoms: _414  and  _416
REMARK  164  A    between atoms: _416  and  _417
REMARK  165  A    between atoms: _416  and  _419
REMARK  166  A    between atoms: _419  and  _420
REMARK  167  A    between atoms: _423  and  _425
REMARK  168  A    between atoms: _425  and  _426
REMARK  169  A    between atoms: _425  and  _428
REMARK  170  A    between atoms: _428  and  _429
REMARK  171  A    between atoms: _439  and  _441
REMARK  172  A    between atoms: _441  and  _442
REMARK  173  A    between atoms: _441  and  _444
REMARK  174  A    between atoms: _444  and  _445
REMARK  175  A    between atoms: _445  and  _446
REMARK  176  A    between atoms: _451  and  _453
REMARK  177  A    between atoms: _453  and  _454
REMARK  178  A    between atoms: _453  and  _456
REMARK  179  A    between atoms: _459  and  _461
REMARK  180  A    between atoms: _461  and  _462
REMARK  181  A    between atoms: _461  and  _464
REMARK  182  A    between atoms: _464  and  _465
REMARK  183  A    between atoms: _468  and  _470
REMARK  184  A    between atoms: _470  and  _471
REMARK  185  A    between atoms: _474  and  _476
REMARK  186  A    between atoms: _476  and  _477
REMARK  187  A    between atoms: _476  and  _479
REMARK  188  A    between atoms: _482  and  _484
REMARK  189  A    between atoms: _484  and  _485
REMARK  190  A    between atoms: _484  and  _487
REMARK  191  A    between atoms: _487  and  _488
REMARK  192  A    between atoms: _494  and  _496
REMARK  193  A    between atoms: _496  and  _497
REMARK  194  A    between atoms: _496  and  _499
REMARK  195  A    between atoms: _499  and  _500
REMARK  196  A    between atoms: _502  and  _504
REMARK  197  A    between atoms: _504  and  _505
REMARK  198  A    between atoms: _504  and  _507
REMARK  199  A    between atoms: _507  and  _508
REMARK  200  A    between atoms: _513  and  _515
REMARK  201  A    between atoms: _515  and  _516
REMARK  202  A    between atoms: _515  and  _518
REMARK  203  A    between atoms: _518  and  _519
REMARK  204  A    between atoms: _529  and  _531
REMARK  205  A    between atoms: _531  and  _532
REMARK  206  A    between atoms: _531  and  _534
REMARK  207  A    between atoms: _534  and  _535
REMARK  208  A    between atoms: _538  and  _540
REMARK  209  A    between atoms: _540  and  _541
REMARK  210  A    between atoms: _540  and  _543
REMARK  211  A    between atoms: _543  and  _544
REMARK  212  A    between atoms: _549  and  _550
REMARK  213  A    between atoms: _552  and  _554
REMARK  214  A    between atoms: _554  and  _555
REMARK  215  A    between atoms: _554  and  _557
REMARK  216  A    between atoms: _557  and  _558
REMARK  217  A    between atoms: _561  and  _563
REMARK  218  A    between atoms: _563  and  _564
REMARK  219  A    between atoms: _563  and  _566
REMARK  220  A    between atoms: _566  and  _567
REMARK  221  A    between atoms: _567  and  _568
REMARK  222  A    between atoms: _571  and  _573
REMARK  223  A    between atoms: _573  and  _574
REMARK  224  A    between atoms: _573  and  _576
REMARK  225  A    between atoms: _576  and  _577
REMARK  226  A    between atoms: _582  and  _584
REMARK  227  A    between atoms: _584  and  _585
REMARK  228  A    between atoms: _587  and  _589
REMARK  229  A    between atoms: _589  and  _590
REMARK  230  A    between atoms: _589  and  _592
REMARK  231  A    between atoms: _592  and  _593
REMARK  232  A    between atoms: _593  and  _594
REMARK  233  A    between atoms: _596  and  _598
REMARK  234  A    between atoms: _598  and  _599
REMARK  235  A    between atoms: _598  and  _601
REMARK  236  A    between atoms: _601  and  _602
REMARK  237  A    between atoms: _605  and  _607
REMARK  238  A    between atoms: _607  and  _608
REMARK  239  A    between atoms: _607  and  _610
REMARK  240  A    between atoms: _610  and  _611
REMARK  241  A    between atoms: _621  and  _623
REMARK  242  A    between atoms: _623  and  _624
REMARK  243  A    between atoms: _623  and  _626
REMARK  244  A    between atoms: _626  and  _627
REMARK  245  A    between atoms: _629  and  _631
REMARK  246  A    between atoms: _631  and  _632
REMARK  247  A    between atoms: _631  and  _634
REMARK  248  A    between atoms: _634  and  _635
REMARK  249  A    between atoms: _640  and  _642
REMARK  250  A    between atoms: _642  and  _643
REMARK  251  A    between atoms: _642  and  _645
REMARK  252  A    between atoms: _645  and  _646
REMARK  253  A    between atoms: _652  and  _654
REMARK  254  A    between atoms: _654  and  _655
REMARK  255  A    between atoms: _654  and  _657
REMARK  256  A    between atoms: _657  and  _658
REMARK  257  A    between atoms: _658  and  _659
REMARK  258  A    between atoms: _662  and  _664
REMARK  259  A    between atoms: _664  and  _665
REMARK  260  A    between atoms: _664  and  _667
REMARK  261  A    between atoms: _667  and  _668
REMARK  262  A    between atoms: _678  and  _680
REMARK  263  A    between atoms: _680  and  _681
REMARK  264  A    between atoms: _680  and  _683
REMARK  265  A    between atoms: _683  and  _684
REMARK  266  A    between atoms: _687  and  _689
REMARK  267  A    between atoms: _689  and  _690
REMARK  268  A    between atoms: _689  and  _692
REMARK  269  A    between atoms: _692  and  _693
REMARK  270  A    between atoms: _695  and  _697
REMARK  271  A    between atoms: _697  and  _698
REMARK  272  A    between atoms: _697  and  _700
REMARK  273  A    between atoms: _700  and  _701
REMARK  274  A    between atoms: _703  and  _705
REMARK  275  A    between atoms: _705  and  _706
REMARK  276  A    between atoms: _705  and  _708
REMARK  277  A    between atoms: _708  and  _709
REMARK                            x       y       z     vdW  Elec       q    Type
REMARK                         _______ _______ _______ _____ _____    ______ ____
ROOT
ATOM      1  O   HOH     1       5.135   2.890  48.709  0.00  0.00    +0.000 OA
ENDROOT
TORSDOF 0
REMARK  Name = ../refined-set-2016/4qll/4qll_pocket.pdb
REMARK  277 active torsions:
REMARK  status: ('A' for Active; 'I' for Inactive)
REMARK    1  A    between atoms: _1  and  _3
REMARK    2  A    between atoms: _3  and  _4
REMARK    3  A    between atoms: _3  and  _6
REMARK    4  A    between atoms: _9  and  _11
REMARK    5  A    between atoms: _11  and  _12
REMARK    6  A    between atoms: _11  and  _14
REMARK    7  A    between atoms: _14  and  _15
REMARK    8  A    between atoms: _18  and  _20
REMARK    9  A    between atoms: _20  and  _21
REMARK   10  A    between atoms: _20  and  _23
REMARK   11  A    between atoms: _23  and  _24
REMARK   12  A    between atoms: _26  and  _28
REMARK   13  A    between atoms: _28  and  _29
REMARK   14  A    between atoms: _28  and  _31
REMARK   15  A    between atoms: _31  and  _32
REMARK   16  A    between atoms: _32  and  _33
REMARK   17  A    between atoms: _38  and  _40
REMARK   18  A    between atoms: _40  and  _41
REMARK   19  A    between atoms: _40  and  _43
REMARK   20  A    between atoms: _43  and  _44
REMARK   21  A    between atoms: _44  and  _45
REMARK   22  A    between atoms: _45  and  _46
REMARK   23  A    between atoms: _55  and  _57
REMARK   24  A    between atoms: _57  and  _58
REMARK   25  A    between atoms: _57  and  _60
REMARK   26  A    between atoms: _60  and  _61
REMARK   27  A    between atoms: _66  and  _68
REMARK   28  A    between atoms: _68  and  _69
REMARK   29  A    between atoms: _68  and  _71
REMARK   30  A    between atoms: _71  and  _72
REMARK   31  A    between atoms: _77  and  _78
REMARK   32  A    between atoms: _80  and  _82
REMARK   33  A    between atoms: _82  and  _83
REMARK   34  A    between atoms: _82  and  _85
REMARK   35  A    between atoms: _85  and  _86
REMARK   36  A    between atoms: _91  and  _93
REMARK   37  A    between atoms: _93  and  _94
REMARK   38  A    between atoms: _93  and  _96
REMARK   39  A    between atoms: _96  and  _97
REMARK   40  A    between atoms: _97  and  _98
REMARK   41  A    between atoms: _103  and  _105
REMARK   42  A    between atoms: _105  and  _106
REMARK   43  A    between atoms: _105  and  _108
REMARK   44  A    between atoms: _108  and  _109
REMARK   45  A    between atoms: _109  and  _110
REMARK   46  A    between atoms: _110  and  _111
REMARK   47  A    between atoms: _120  and  _122
REMARK   48  A    between atoms: _122  and  _123
REMARK   49  A    between atoms: _122  and  _125
REMARK   50  A    between atoms: _125  and  _126
REMARK   51  A    between atoms: _129  and  _131
REMARK   52  A    between atoms: _131  and  _132
REMARK   53  A    between atoms: _131  and  _134
REMARK   54  A    between atoms: _134  and  _135
REMARK   55  A    between atoms: _138  and  _140
REMARK   56  A    between atoms: _140  and  _141
REMARK   57  A    between atoms: _140  and  _143
REMARK   58  A    between atoms: _143  and  _144
REMARK   59  A    between atoms: _147  and  _149
REMARK   60  A    between atoms: _149  and  _150
REMARK   61  A    between atoms: _149  and  _152
REMARK   62  A    between atoms: _152  and  _153
REMARK   63  A    between atoms: _156  and  _158
REMARK   64  A    between atoms: _158  and  _159
REMARK   65  A    between atoms: _162  and  _164
REMARK   66  A    between atoms: _164  and  _165
REMARK   67  A    between atoms: _164  and  _167
REMARK   68  A    between atoms: _167  and  _168
REMARK   69  A    between atoms: _171  and  _173
REMARK   70  A    between atoms: _173  and  _174
REMARK   71  A    between atoms: _173  and  _176
REMARK   72  A    between atoms: _176  and  _177
REMARK   73  A    between atoms: _182  and  _184
REMARK   74  A    between atoms: _184  and  _185
REMARK   75  A    between atoms: _184  and  _187
REMARK   76  A    between atoms: _190  and  _192
REMARK   77  A    between atoms: _192  and  _193
REMARK   78  A    between atoms: _192  and  _195
REMARK   79  A    between atoms: _195  and  _196
REMARK   80  A    between atoms: _199  and  _201
REMARK   81  A    between atoms: _201  and  _202
REMARK   82  A    between atoms: _201  and  _204
REMARK   83  A    between atoms: _204  and  _205
REMARK   84  A    between atoms: _208  and  _210
REMARK   85  A    between atoms: _210  and  _211
REMARK   86  A    between atoms: _210  and  _213
REMARK   87  A    between atoms: _213  and  _214
REMARK   88  A    between atoms: _220  and  _222
REMARK   89  A    between atoms: _222  and  _223
REMARK   90  A    between atoms: _222  and  _225
REMARK   91  A    between atoms: _225  and  _226
REMARK   92  A    between atoms: _231  and  _233
REMARK   93  A    between atoms: _233  and  _234
REMARK   94  A    between atoms: _233  and  _236
REMARK   95  A    between atoms: _236  and  _237
REMARK   96  A    between atoms: _247  and  _249
REMARK   97  A    between atoms: _249  and  _250
REMARK   98  A    between atoms: _249  and  _252
REMARK   99  A    between atoms: _252  and  _253
REMARK  100  A    between atoms: _258  and  _259
REMARK  101  A    between atoms: _261  and  _263
REMARK  102  A    between atoms: _263  and  _264
REMARK  103  A    between atoms: _267  and  _269
REMARK  104  A    between atoms: _269  and  _270
REMARK  105  A    between atoms: _269  and  _272
REMARK  106  A    between atoms: _272  and  _273
REMARK  107  A    between atoms: _279  and  _281
REMARK  108  A    between atoms: _281  and  _282
REMARK  109  A    between atoms: _281  and  _284
REMARK  110  A    between atoms: _284  and  _285
REMARK  111  A    between atoms: _290  and  _292
REMARK  112  A    between atoms: _292  and  _293
REMARK  113  A    between atoms: _292  and  _295
REMARK  114  A    between atoms: _295  and  _296
REMARK  115  A    between atoms: _301  and  _303
REMARK  116  A    between atoms: _303  and  _304
REMARK  117  A    between atoms: _303  and  _306
REMARK  118  A    between atoms: _306  and  _307
REMARK  119  A    between atoms: _307  and  _308
REMARK  120  A    between atoms: _313  and  _315
REMARK  121  A    between atoms: _315  and  _316
REMARK  122  A    between atoms: _315  and  _318
REMARK  123  A    between atoms: _318  and  _319
REMARK  124  A    between atoms: _324  and  _325
REMARK  125  A    between atoms: _327  and  _329
REMARK  126  A    between atoms: _329  and  _330
REMARK  127  A    between atoms: _329  and  _332
REMARK  128  A    between atoms: _332  and  _333
REMARK  129  A    between atoms: _336  and  _338
REMARK  130  A    between atoms: _338  and  _339
REMARK  131  A    between atoms: _342  and  _344
REMARK  132  A    between atoms: _344  and  _345
REMARK  133  A    between atoms: _344  and  _347
REMARK  134  A    between atoms: _347  and  _348
REMARK  135  A    between atoms: _350  and  _352
REMARK  136  A    between atoms: _352  and  _353
REMARK  137  A    between atoms: _352  and  _355
REMARK  138  A    between atoms: _355  and  _356
REMARK  139  A    between atoms: _361  and  _362
REMARK  140  A    between atoms: _364  and  _366
REMARK  141  A    between atoms: _366  and  _367
REMARK  142  A    between atoms: _366  and  _369
REMARK  143  A    between atoms: _369  and  _370
REMARK  144  A    between atoms: _370  and  _371
REMARK  145  A    between atoms: _373  and  _375
REMARK  146  A    between atoms: _375  and  _376
REMARK  147  A    between atoms: _375  and  _378
REMARK  148  A    between atoms: _378  and  _379
REMARK  149  A    between atoms: _379  and  _380
REMARK  150  A    between atoms: _380  and  _381
REMARK  151  A    between atoms: _381  and  _382
REMARK  152  A    between atoms: _386  and  _388
REMARK  153  A    between atoms: _388  and  _389
REMARK  154  A    between atoms: _388  and  _391
REMARK  155  A    between atoms: _391  and  _392
REMARK  156  A    between atoms: _397  and  _398
REMARK  157  A    between atoms: _400  and  _402
REMARK  158  A    between atoms: _402  and  _403
REMARK  159  A    between atoms: _402  and  _405
REMARK  160  A    between atoms: _405  and  _406
REMARK  161  A    between atoms: _408  and  _410
REMARK  162  A    between atoms: _410  and  _411
REMARK  163  A    between atoms: _414  and  _416
REMARK  164  A    between atoms: _416  and  _417
REMARK  165  A    between atoms: _416  and  _419
REMARK  166  A    between atoms: _419  and  _420
REMARK  167  A    between atoms: _423  and  _425
REMARK  168  A    between atoms: _425  and  _426
REMARK  169  A    between atoms: _425  and  _428
REMARK  170  A    between atoms: _428  and  _429
REMARK  171  A    between atoms: _439  and  _441
REMARK  172  A    between atoms: _441  and  _442
REMARK  173  A    between atoms: _441  and  _444
REMARK  174  A    between atoms: _444  and  _445
REMARK  175  A    between atoms: _445  and  _446
REMARK  176  A    between atoms: _451  and  _453
REMARK  177  A    between atoms: _453  and  _454
REMARK  178  A    between atoms: _453  and  _456
REMARK  179  A    between atoms: _459  and  _461
REMARK  180  A    between atoms: _461  and  _462
REMARK  181  A    between atoms: _461  and  _464
REMARK  182  A    between atoms: _464  and  _465
REMARK  183  A    between atoms: _468  and  _470
REMARK  184  A    between atoms: _470  and  _471
REMARK  185  A    between atoms: _474  and  _476
REMARK  186  A    between atoms: _476  and  _477
REMARK  187  A    between atoms: _476  and  _479
REMARK  188  A    between atoms: _482  and  _484
REMARK  189  A    between atoms: _484  and  _485
REMARK  190  A    between atoms: _484  and  _487
REMARK  191  A    between atoms: _487  and  _488
REMARK  192  A    between atoms: _494  and  _496
REMARK  193  A    between atoms: _496  and  _497
REMARK  194  A    between atoms: _496  and  _499
REMARK  195  A    between atoms: _499  and  _500
REMARK  196  A    between atoms: _502  and  _504
REMARK  197  A    between atoms: _504  and  _505
REMARK  198  A    between atoms: _504  and  _507
REMARK  199  A    between atoms: _507  and  _508
REMARK  200  A    between atoms: _513  and  _515
REMARK  201  A    between atoms: _515  and  _516
REMARK  202  A    between atoms: _515  and  _518
REMARK  203  A    between atoms: _518  and  _519
REMARK  204  A    between atoms: _529  and  _531
REMARK  205  A    between atoms: _531  and  _532
REMARK  206  A    between atoms: _531  and  _534
REMARK  207  A    between atoms: _534  and  _535
REMARK  208  A    between atoms: _538  and  _540
REMARK  209  A    between atoms: _540  and  _541
REMARK  210  A    between atoms: _540  and  _543
REMARK  211  A    between atoms: _543  and  _544
REMARK  212  A    between atoms: _549  and  _550
REMARK  213  A    between atoms: _552  and  _554
REMARK  214  A    between atoms: _554  and  _555
REMARK  215  A    between atoms: _554  and  _557
REMARK  216  A    between atoms: _557  and  _558
REMARK  217  A    between atoms: _561  and  _563
REMARK  218  A    between atoms: _563  and  _564
REMARK  219  A    between atoms: _563  and  _566
REMARK  220  A    between atoms: _566  and  _567
REMARK  221  A    between atoms: _567  and  _568
REMARK  222  A    between atoms: _571  and  _573
REMARK  223  A    between atoms: _573  and  _574
REMARK  224  A    between atoms: _573  and  _576
REMARK  225  A    between atoms: _576  and  _577
REMARK  226  A    between atoms: _582  and  _584
REMARK  227  A    between atoms: _584  and  _585
REMARK  228  A    between atoms: _587  and  _589
REMARK  229  A    between atoms: _589  and  _590
REMARK  230  A    between atoms: _589  and  _592
REMARK  231  A    between atoms: _592  and  _593
REMARK  232  A    between atoms: _593  and  _594
REMARK  233  A    between atoms: _596  and  _598
REMARK  234  A    between atoms: _598  and  _599
REMARK  235  A    between atoms: _598  and  _601
REMARK  236  A    between atoms: _601  and  _602
REMARK  237  A    between atoms: _605  and  _607
REMARK  238  A    between atoms: _607  and  _608
REMARK  239  A    between atoms: _607  and  _610
REMARK  240  A    between atoms: _610  and  _611
REMARK  241  A    between atoms: _621  and  _623
REMARK  242  A    between atoms: _623  and  _624
REMARK  243  A    between atoms: _623  and  _626
REMARK  244  A    between atoms: _626  and  _627
REMARK  245  A    between atoms: _629  and  _631
REMARK  246  A    between atoms: _631  and  _632
REMARK  247  A    between atoms: _631  and  _634
REMARK  248  A    between atoms: _634  and  _635
REMARK  249  A    between atoms: _640  and  _642
REMARK  250  A    between atoms: _642  and  _643
REMARK  251  A    between atoms: _642  and  _645
REMARK  252  A    between atoms: _645  and  _646
REMARK  253  A    between atoms: _652  and  _654
REMARK  254  A    between atoms: _654  and  _655
REMARK  255  A    between atoms: _654  and  _657
REMARK  256  A    between atoms: _657  and  _658
REMARK  257  A    between atoms: _658  and  _659
REMARK  258  A    between atoms: _662  and  _664
REMARK  259  A    between atoms: _664  and  _665
REMARK  260  A    between atoms: _664  and  _667
REMARK  261  A    between atoms: _667  and  _668
REMARK  262  A    between atoms: _678  and  _680
REMARK  263  A    between atoms: _680  and  _681
REMARK  264  A    between atoms: _680  and  _683
REMARK  265  A    between atoms: _683  and  _684
REMARK  266  A    between atoms: _687  and  _689
REMARK  267  A    between atoms: _689  and  _690
REMARK  268  A    between atoms: _689  and  _692
REMARK  269  A    between atoms: _692  and  _693
REMARK  270  A    between atoms: _695  and  _697
REMARK  271  A    between atoms: _697  and  _698
REMARK  272  A    between atoms: _697  and  _700
REMARK  273  A    between atoms: _700  and  _701
REMARK  274  A    between atoms: _703  and  _705
REMARK  275  A    between atoms: _705  and  _706
REMARK  276  A    between atoms: _705  and  _708
REMARK  277  A    between atoms: _708  and  _709
REMARK                            x       y       z     vdW  Elec       q    Type
REMARK                         _______ _______ _______ _____ _____    ______ ____
ROOT
ATOM      1  O   HOH     1       6.047  -4.813  28.758  0.00  0.00    +0.000 OA
ENDROOT
TORSDOF 0
REMARK  Name = ../refined-set-2016/4qll/4qll_pocket.pdb
REMARK  277 active torsions:
REMARK  status: ('A' for Active; 'I' for Inactive)
REMARK    1  A    between atoms: _1  and  _3
REMARK    2  A    between atoms: _3  and  _4
REMARK    3  A    between atoms: _3  and  _6
REMARK    4  A    between atoms: _9  and  _11
REMARK    5  A    between atoms: _11  and  _12
REMARK    6  A    between atoms: _11  and  _14
REMARK    7  A    between atoms: _14  and  _15
REMARK    8  A    between atoms: _18  and  _20
REMARK    9  A    between atoms: _20  and  _21
REMARK   10  A    between atoms: _20  and  _23
REMARK   11  A    between atoms: _23  and  _24
REMARK   12  A    between atoms: _26  and  _28
REMARK   13  A    between atoms: _28  and  _29
REMARK   14  A    between atoms: _28  and  _31
REMARK   15  A    between atoms: _31  and  _32
REMARK   16  A    between atoms: _32  and  _33
REMARK   17  A    between atoms: _38  and  _40
REMARK   18  A    between atoms: _40  and  _41
REMARK   19  A    between atoms: _40  and  _43
REMARK   20  A    between atoms: _43  and  _44
REMARK   21  A    between atoms: _44  and  _45
REMARK   22  A    between atoms: _45  and  _46
REMARK   23  A    between atoms: _55  and  _57
REMARK   24  A    between atoms: _57  and  _58
REMARK   25  A    between atoms: _57  and  _60
REMARK   26  A    between atoms: _60  and  _61
REMARK   27  A    between atoms: _66  and  _68
REMARK   28  A    between atoms: _68  and  _69
REMARK   29  A    between atoms: _68  and  _71
REMARK   30  A    between atoms: _71  and  _72
REMARK   31  A    between atoms: _77  and  _78
REMARK   32  A    between atoms: _80  and  _82
REMARK   33  A    between atoms: _82  and  _83
REMARK   34  A    between atoms: _82  and  _85
REMARK   35  A    between atoms: _85  and  _86
REMARK   36  A    between atoms: _91  and  _93
REMARK   37  A    between atoms: _93  and  _94
REMARK   38  A    between atoms: _93  and  _96
REMARK   39  A    between atoms: _96  and  _97
REMARK   40  A    between atoms: _97  and  _98
REMARK   41  A    between atoms: _103  and  _105
REMARK   42  A    between atoms: _105  and  _106
REMARK   43  A    between atoms: _105  and  _108
REMARK   44  A    between atoms: _108  and  _109
REMARK   45  A    between atoms: _109  and  _110
REMARK   46  A    between atoms: _110  and  _111
REMARK   47  A    between atoms: _120  and  _122
REMARK   48  A    between atoms: _122  and  _123
REMARK   49  A    between atoms: _122  and  _125
REMARK   50  A    between atoms: _125  and  _126
REMARK   51  A    between atoms: _129  and  _131
REMARK   52  A    between atoms: _131  and  _132
REMARK   53  A    between atoms: _131  and  _134
REMARK   54  A    between atoms: _134  and  _135
REMARK   55  A    between atoms: _138  and  _140
REMARK   56  A    between atoms: _140  and  _141
REMARK   57  A    between atoms: _140  and  _143
REMARK   58  A    between atoms: _143  and  _144
REMARK   59  A    between atoms: _147  and  _149
REMARK   60  A    between atoms: _149  and  _150
REMARK   61  A    between atoms: _149  and  _152
REMARK   62  A    between atoms: _152  and  _153
REMARK   63  A    between atoms: _156  and  _158
REMARK   64  A    between atoms: _158  and  _159
REMARK   65  A    between atoms: _162  and  _164
REMARK   66  A    between atoms: _164  and  _165
REMARK   67  A    between atoms: _164  and  _167
REMARK   68  A    between atoms: _167  and  _168
REMARK   69  A    between atoms: _171  and  _173
REMARK   70  A    between atoms: _173  and  _174
REMARK   71  A    between atoms: _173  and  _176
REMARK   72  A    between atoms: _176  and  _177
REMARK   73  A    between atoms: _182  and  _184
REMARK   74  A    between atoms: _184  and  _185
REMARK   75  A    between atoms: _184  and  _187
REMARK   76  A    between atoms: _190  and  _192
REMARK   77  A    between atoms: _192  and  _193
REMARK   78  A    between atoms: _192  and  _195
REMARK   79  A    between atoms: _195  and  _196
REMARK   80  A    between atoms: _199  and  _201
REMARK   81  A    between atoms: _201  and  _202
REMARK   82  A    between atoms: _201  and  _204
REMARK   83  A    between atoms: _204  and  _205
REMARK   84  A    between atoms: _208  and  _210
REMARK   85  A    between atoms: _210  and  _211
REMARK   86  A    between atoms: _210  and  _213
REMARK   87  A    between atoms: _213  and  _214
REMARK   88  A    between atoms: _220  and  _222
REMARK   89  A    between atoms: _222  and  _223
REMARK   90  A    between atoms: _222  and  _225
REMARK   91  A    between atoms: _225  and  _226
REMARK   92  A    between atoms: _231  and  _233
REMARK   93  A    between atoms: _233  and  _234
REMARK   94  A    between atoms: _233  and  _236
REMARK   95  A    between atoms: _236  and  _237
REMARK   96  A    between atoms: _247  and  _249
REMARK   97  A    between atoms: _249  and  _250
REMARK   98  A    between atoms: _249  and  _252
REMARK   99  A    between atoms: _252  and  _253
REMARK  100  A    between atoms: _258  and  _259
REMARK  101  A    between atoms: _261  and  _263
REMARK  102  A    between atoms: _263  and  _264
REMARK  103  A    between atoms: _267  and  _269
REMARK  104  A    between atoms: _269  and  _270
REMARK  105  A    between atoms: _269  and  _272
REMARK  106  A    between atoms: _272  and  _273
REMARK  107  A    between atoms: _279  and  _281
REMARK  108  A    between atoms: _281  and  _282
REMARK  109  A    between atoms: _281  and  _284
REMARK  110  A    between atoms: _284  and  _285
REMARK  111  A    between atoms: _290  and  _292
REMARK  112  A    between atoms: _292  and  _293
REMARK  113  A    between atoms: _292  and  _295
REMARK  114  A    between atoms: _295  and  _296
REMARK  115  A    between atoms: _301  and  _303
REMARK  116  A    between atoms: _303  and  _304
REMARK  117  A    between atoms: _303  and  _306
REMARK  118  A    between atoms: _306  and  _307
REMARK  119  A    between atoms: _307  and  _308
REMARK  120  A    between atoms: _313  and  _315
REMARK  121  A    between atoms: _315  and  _316
REMARK  122  A    between atoms: _315  and  _318
REMARK  123  A    between atoms: _318  and  _319
REMARK  124  A    between atoms: _324  and  _325
REMARK  125  A    between atoms: _327  and  _329
REMARK  126  A    between atoms: _329  and  _330
REMARK  127  A    between atoms: _329  and  _332
REMARK  128  A    between atoms: _332  and  _333
REMARK  129  A    between atoms: _336  and  _338
REMARK  130  A    between atoms: _338  and  _339
REMARK  131  A    between atoms: _342  and  _344
REMARK  132  A    between atoms: _344  and  _345
REMARK  133  A    between atoms: _344  and  _347
REMARK  134  A    between atoms: _347  and  _348
REMARK  135  A    between atoms: _350  and  _352
REMARK  136  A    between atoms: _352  and  _353
REMARK  137  A    between atoms: _352  and  _355
REMARK  138  A    between atoms: _355  and  _356
REMARK  139  A    between atoms: _361  and  _362
REMARK  140  A    between atoms: _364  and  _366
REMARK  141  A    between atoms: _366  and  _367
REMARK  142  A    between atoms: _366  and  _369
REMARK  143  A    between atoms: _369  and  _370
REMARK  144  A    between atoms: _370  and  _371
REMARK  145  A    between atoms: _373  and  _375
REMARK  146  A    between atoms: _375  and  _376
REMARK  147  A    between atoms: _375  and  _378
REMARK  148  A    between atoms: _378  and  _379
REMARK  149  A    between atoms: _379  and  _380
REMARK  150  A    between atoms: _380  and  _381
REMARK  151  A    between atoms: _381  and  _382
REMARK  152  A    between atoms: _386  and  _388
REMARK  153  A    between atoms: _388  and  _389
REMARK  154  A    between atoms: _388  and  _391
REMARK  155  A    between atoms: _391  and  _392
REMARK  156  A    between atoms: _397  and  _398
REMARK  157  A    between atoms: _400  and  _402
REMARK  158  A    between atoms: _402  and  _403
REMARK  159  A    between atoms: _402  and  _405
REMARK  160  A    between atoms: _405  and  _406
REMARK  161  A    between atoms: _408  and  _410
REMARK  162  A    between atoms: _410  and  _411
REMARK  163  A    between atoms: _414  and  _416
REMARK  164  A    between atoms: _416  and  _417
REMARK  165  A    between atoms: _416  and  _419
REMARK  166  A    between atoms: _419  and  _420
REMARK  167  A    between atoms: _423  and  _425
REMARK  168  A    between atoms: _425  and  _426
REMARK  169  A    between atoms: _425  and  _428
REMARK  170  A    between atoms: _428  and  _429
REMARK  171  A    between atoms: _439  and  _441
REMARK  172  A    between atoms: _441  and  _442
REMARK  173  A    between atoms: _441  and  _444
REMARK  174  A    between atoms: _444  and  _445
REMARK  175  A    between atoms: _445  and  _446
REMARK  176  A    between atoms: _451  and  _453
REMARK  177  A    between atoms: _453  and  _454
REMARK  178  A    between atoms: _453  and  _456
REMARK  179  A    between atoms: _459  and  _461
REMARK  180  A    between atoms: _461  and  _462
REMARK  181  A    between atoms: _461  and  _464
REMARK  182  A    between atoms: _464  and  _465
REMARK  183  A    between atoms: _468  and  _470
REMARK  184  A    between atoms: _470  and  _471
REMARK  185  A    between atoms: _474  and  _476
REMARK  186  A    between atoms: _476  and  _477
REMARK  187  A    between atoms: _476  and  _479
REMARK  188  A    between atoms: _482  and  _484
REMARK  189  A    between atoms: _484  and  _485
REMARK  190  A    between atoms: _484  and  _487
REMARK  191  A    between atoms: _487  and  _488
REMARK  192  A    between atoms: _494  and  _496
REMARK  193  A    between atoms: _496  and  _497
REMARK  194  A    between atoms: _496  and  _499
REMARK  195  A    between atoms: _499  and  _500
REMARK  196  A    between atoms: _502  and  _504
REMARK  197  A    between atoms: _504  and  _505
REMARK  198  A    between atoms: _504  and  _507
REMARK  199  A    between atoms: _507  and  _508
REMARK  200  A    between atoms: _513  and  _515
REMARK  201  A    between atoms: _515  and  _516
REMARK  202  A    between atoms: _515  and  _518
REMARK  203  A    between atoms: _518  and  _519
REMARK  204  A    between atoms: _529  and  _531
REMARK  205  A    between atoms: _531  and  _532
REMARK  206  A    between atoms: _531  and  _534
REMARK  207  A    between atoms: _534  and  _535
REMARK  208  A    between atoms: _538  and  _540
REMARK  209  A    between atoms: _540  and  _541
REMARK  210  A    between atoms: _540  and  _543
REMARK  211  A    between atoms: _543  and  _544
REMARK  212  A    between atoms: _549  and  _550
REMARK  213  A    between atoms: _552  and  _554
REMARK  214  A    between atoms: _554  and  _555
REMARK  215  A    between atoms: _554  and  _557
REMARK  216  A    between atoms: _557  and  _558
REMARK  217  A    between atoms: _561  and  _563
REMARK  218  A    between atoms: _563  and  _564
REMARK  219  A    between atoms: _563  and  _566
REMARK  220  A    between atoms: _566  and  _567
REMARK  221  A    between atoms: _567  and  _568
REMARK  222  A    between atoms: _571  and  _573
REMARK  223  A    between atoms: _573  and  _574
REMARK  224  A    between atoms: _573  and  _576
REMARK  225  A    between atoms: _576  and  _577
REMARK  226  A    between atoms: _582  and  _584
REMARK  227  A    between atoms: _584  and  _585
REMARK  228  A    between atoms: _587  and  _589
REMARK  229  A    between atoms: _589  and  _590
REMARK  230  A    between atoms: _589  and  _592
REMARK  231  A    between atoms: _592  and  _593
REMARK  232  A    between atoms: _593  and  _594
REMARK  233  A    between atoms: _596  and  _598
REMARK  234  A    between atoms: _598  and  _599
REMARK  235  A    between atoms: _598  and  _601
REMARK  236  A    between atoms: _601  and  _602
REMARK  237  A    between atoms: _605  and  _607
REMARK  238  A    between atoms: _607  and  _608
REMARK  239  A    between atoms: _607  and  _610
REMARK  240  A    between atoms: _610  and  _611
REMARK  241  A    between atoms: _621  and  _623
REMARK  242  A    between atoms: _623  and  _624
REMARK  243  A    between atoms: _623  and  _626
REMARK  244  A    between atoms: _626  and  _627
REMARK  245  A    between atoms: _629  and  _631
REMARK  246  A    between atoms: _631  and  _632
REMARK  247  A    between atoms: _631  and  _634
REMARK  248  A    between atoms: _634  and  _635
REMARK  249  A    between atoms: _640  and  _642
REMARK  250  A    between atoms: _642  and  _643
REMARK  251  A    between atoms: _642  and  _645
REMARK  252  A    between atoms: _645  and  _646
REMARK  253  A    between atoms: _652  and  _654
REMARK  254  A    between atoms: _654  and  _655
REMARK  255  A    between atoms: _654  and  _657
REMARK  256  A    between atoms: _657  and  _658
REMARK  257  A    between atoms: _658  and  _659
REMARK  258  A    between atoms: _662  and  _664
REMARK  259  A    between atoms: _664  and  _665
REMARK  260  A    between atoms: _664  and  _667
REMARK  261  A    between atoms: _667  and  _668
REMARK  262  A    between atoms: _678  and  _680
REMARK  263  A    between atoms: _680  and  _681
REMARK  264  A    between atoms: _680  and  _683
REMARK  265  A    between atoms: _683  and  _684
REMARK  266  A    between atoms: _687  and  _689
REMARK  267  A    between atoms: _689  and  _690
REMARK  268  A    between atoms: _689  and  _692
REMARK  269  A    between atoms: _692  and  _693
REMARK  270  A    between atoms: _695  and  _697
REMARK  271  A    between atoms: _697  and  _698
REMARK  272  A    between atoms: _697  and  _700
REMARK  273  A    between atoms: _700  and  _701
REMARK  274  A    between atoms: _703  and  _705
REMARK  275  A    between atoms: _705  and  _706
REMARK  276  A    between atoms: _705  and  _708
REMARK  277  A    between atoms: _708  and  _709
REMARK                            x       y       z     vdW  Elec       q    Type
REMARK                         _______ _______ _______ _____ _____    ______ ____
ROOT
ATOM      1  O   HOH     1       5.855   0.515  44.567  0.00  0.00    +0.000 OA
ENDROOT
TORSDOF 0
REMARK  Name = ../refined-set-2016/4qll/4qll_pocket.pdb
REMARK  277 active torsions:
REMARK  status: ('A' for Active; 'I' for Inactive)
REMARK    1  A    between atoms: _1  and  _3
REMARK    2  A    between atoms: _3  and  _4
REMARK    3  A    between atoms: _3  and  _6
REMARK    4  A    between atoms: _9  and  _11
REMARK    5  A    between atoms: _11  and  _12
REMARK    6  A    between atoms: _11  and  _14
REMARK    7  A    between atoms: _14  and  _15
REMARK    8  A    between atoms: _18  and  _20
REMARK    9  A    between atoms: _20  and  _21
REMARK   10  A    between atoms: _20  and  _23
REMARK   11  A    between atoms: _23  and  _24
REMARK   12  A    between atoms: _26  and  _28
REMARK   13  A    between atoms: _28  and  _29
REMARK   14  A    between atoms: _28  and  _31
REMARK   15  A    between atoms: _31  and  _32
REMARK   16  A    between atoms: _32  and  _33
REMARK   17  A    between atoms: _38  and  _40
REMARK   18  A    between atoms: _40  and  _41
REMARK   19  A    between atoms: _40  and  _43
REMARK   20  A    between atoms: _43  and  _44
REMARK   21  A    between atoms: _44  and  _45
REMARK   22  A    between atoms: _45  and  _46
REMARK   23  A    between atoms: _55  and  _57
REMARK   24  A    between atoms: _57  and  _58
REMARK   25  A    between atoms: _57  and  _60
REMARK   26  A    between atoms: _60  and  _61
REMARK   27  A    between atoms: _66  and  _68
REMARK   28  A    between atoms: _68  and  _69
REMARK   29  A    between atoms: _68  and  _71
REMARK   30  A    between atoms: _71  and  _72
REMARK   31  A    between atoms: _77  and  _78
REMARK   32  A    between atoms: _80  and  _82
REMARK   33  A    between atoms: _82  and  _83
REMARK   34  A    between atoms: _82  and  _85
REMARK   35  A    between atoms: _85  and  _86
REMARK   36  A    between atoms: _91  and  _93
REMARK   37  A    between atoms: _93  and  _94
REMARK   38  A    between atoms: _93  and  _96
REMARK   39  A    between atoms: _96  and  _97
REMARK   40  A    between atoms: _97  and  _98
REMARK   41  A    between atoms: _103  and  _105
REMARK   42  A    between atoms: _105  and  _106
REMARK   43  A    between atoms: _105  and  _108
REMARK   44  A    between atoms: _108  and  _109
REMARK   45  A    between atoms: _109  and  _110
REMARK   46  A    between atoms: _110  and  _111
REMARK   47  A    between atoms: _120  and  _122
REMARK   48  A    between atoms: _122  and  _123
REMARK   49  A    between atoms: _122  and  _125
REMARK   50  A    between atoms: _125  and  _126
REMARK   51  A    between atoms: _129  and  _131
REMARK   52  A    between atoms: _131  and  _132
REMARK   53  A    between atoms: _131  and  _134
REMARK   54  A    between atoms: _134  and  _135
REMARK   55  A    between atoms: _138  and  _140
REMARK   56  A    between atoms: _140  and  _141
REMARK   57  A    between atoms: _140  and  _143
REMARK   58  A    between atoms: _143  and  _144
REMARK   59  A    between atoms: _147  and  _149
REMARK   60  A    between atoms: _149  and  _150
REMARK   61  A    between atoms: _149  and  _152
REMARK   62  A    between atoms: _152  and  _153
REMARK   63  A    between atoms: _156  and  _158
REMARK   64  A    between atoms: _158  and  _159
REMARK   65  A    between atoms: _162  and  _164
REMARK   66  A    between atoms: _164  and  _165
REMARK   67  A    between atoms: _164  and  _167
REMARK   68  A    between atoms: _167  and  _168
REMARK   69  A    between atoms: _171  and  _173
REMARK   70  A    between atoms: _173  and  _174
REMARK   71  A    between atoms: _173  and  _176
REMARK   72  A    between atoms: _176  and  _177
REMARK   73  A    between atoms: _182  and  _184
REMARK   74  A    between atoms: _184  and  _185
REMARK   75  A    between atoms: _184  and  _187
REMARK   76  A    between atoms: _190  and  _192
REMARK   77  A    between atoms: _192  and  _193
REMARK   78  A    between atoms: _192  and  _195
REMARK   79  A    between atoms: _195  and  _196
REMARK   80  A    between atoms: _199  and  _201
REMARK   81  A    between atoms: _201  and  _202
REMARK   82  A    between atoms: _201  and  _204
REMARK   83  A    between atoms: _204  and  _205
REMARK   84  A    between atoms: _208  and  _210
REMARK   85  A    between atoms: _210  and  _211
REMARK   86  A    between atoms: _210  and  _213
REMARK   87  A    between atoms: _213  and  _214
REMARK   88  A    between atoms: _220  and  _222
REMARK   89  A    between atoms: _222  and  _223
REMARK   90  A    between atoms: _222  and  _225
REMARK   91  A    between atoms: _225  and  _226
REMARK   92  A    between atoms: _231  and  _233
REMARK   93  A    between atoms: _233  and  _234
REMARK   94  A    between atoms: _233  and  _236
REMARK   95  A    between atoms: _236  and  _237
REMARK   96  A    between atoms: _247  and  _249
REMARK   97  A    between atoms: _249  and  _250
REMARK   98  A    between atoms: _249  and  _252
REMARK   99  A    between atoms: _252  and  _253
REMARK  100  A    between atoms: _258  and  _259
REMARK  101  A    between atoms: _261  and  _263
REMARK  102  A    between atoms: _263  and  _264
REMARK  103  A    between atoms: _267  and  _269
REMARK  104  A    between atoms: _269  and  _270
REMARK  105  A    between atoms: _269  and  _272
REMARK  106  A    between atoms: _272  and  _273
REMARK  107  A    between atoms: _279  and  _281
REMARK  108  A    between atoms: _281  and  _282
REMARK  109  A    between atoms: _281  and  _284
REMARK  110  A    between atoms: _284  and  _285
REMARK  111  A    between atoms: _290  and  _292
REMARK  112  A    between atoms: _292  and  _293
REMARK  113  A    between atoms: _292  and  _295
REMARK  114  A    between atoms: _295  and  _296
REMARK  115  A    between atoms: _301  and  _303
REMARK  116  A    between atoms: _303  and  _304
REMARK  117  A    between atoms: _303  and  _306
REMARK  118  A    between atoms: _306  and  _307
REMARK  119  A    between atoms: _307  and  _308
REMARK  120  A    between atoms: _313  and  _315
REMARK  121  A    between atoms: _315  and  _316
REMARK  122  A    between atoms: _315  and  _318
REMARK  123  A    between atoms: _318  and  _319
REMARK  124  A    between atoms: _324  and  _325
REMARK  125  A    between atoms: _327  and  _329
REMARK  126  A    between atoms: _329  and  _330
REMARK  127  A    between atoms: _329  and  _332
REMARK  128  A    between atoms: _332  and  _333
REMARK  129  A    between atoms: _336  and  _338
REMARK  130  A    between atoms: _338  and  _339
REMARK  131  A    between atoms: _342  and  _344
REMARK  132  A    between atoms: _344  and  _345
REMARK  133  A    between atoms: _344  and  _347
REMARK  134  A    between atoms: _347  and  _348
REMARK  135  A    between atoms: _350  and  _352
REMARK  136  A    between atoms: _352  and  _353
REMARK  137  A    between atoms: _352  and  _355
REMARK  138  A    between atoms: _355  and  _356
REMARK  139  A    between atoms: _361  and  _362
REMARK  140  A    between atoms: _364  and  _366
REMARK  141  A    between atoms: _366  and  _367
REMARK  142  A    between atoms: _366  and  _369
REMARK  143  A    between atoms: _369  and  _370
REMARK  144  A    between atoms: _370  and  _371
REMARK  145  A    between atoms: _373  and  _375
REMARK  146  A    between atoms: _375  and  _376
REMARK  147  A    between atoms: _375  and  _378
REMARK  148  A    between atoms: _378  and  _379
REMARK  149  A    between atoms: _379  and  _380
REMARK  150  A    between atoms: _380  and  _381
REMARK  151  A    between atoms: _381  and  _382
REMARK  152  A    between atoms: _386  and  _388
REMARK  153  A    between atoms: _388  and  _389
REMARK  154  A    between atoms: _388  and  _391
REMARK  155  A    between atoms: _391  and  _392
REMARK  156  A    between atoms: _397  and  _398
REMARK  157  A    between atoms: _400  and  _402
REMARK  158  A    between atoms: _402  and  _403
REMARK  159  A    between atoms: _402  and  _405
REMARK  160  A    between atoms: _405  and  _406
REMARK  161  A    between atoms: _408  and  _410
REMARK  162  A    between atoms: _410  and  _411
REMARK  163  A    between atoms: _414  and  _416
REMARK  164  A    between atoms: _416  and  _417
REMARK  165  A    between atoms: _416  and  _419
REMARK  166  A    between atoms: _419  and  _420
REMARK  167  A    between atoms: _423  and  _425
REMARK  168  A    between atoms: _425  and  _426
REMARK  169  A    between atoms: _425  and  _428
REMARK  170  A    between atoms: _428  and  _429
REMARK  171  A    between atoms: _439  and  _441
REMARK  172  A    between atoms: _441  and  _442
REMARK  173  A    between atoms: _441  and  _444
REMARK  174  A    between atoms: _444  and  _445
REMARK  175  A    between atoms: _445  and  _446
REMARK  176  A    between atoms: _451  and  _453
REMARK  177  A    between atoms: _453  and  _454
REMARK  178  A    between atoms: _453  and  _456
REMARK  179  A    between atoms: _459  and  _461
REMARK  180  A    between atoms: _461  and  _462
REMARK  181  A    between atoms: _461  and  _464
REMARK  182  A    between atoms: _464  and  _465
REMARK  183  A    between atoms: _468  and  _470
REMARK  184  A    between atoms: _470  and  _471
REMARK  185  A    between atoms: _474  and  _476
REMARK  186  A    between atoms: _476  and  _477
REMARK  187  A    between atoms: _476  and  _479
REMARK  188  A    between atoms: _482  and  _484
REMARK  189  A    between atoms: _484  and  _485
REMARK  190  A    between atoms: _484  and  _487
REMARK  191  A    between atoms: _487  and  _488
REMARK  192  A    between atoms: _494  and  _496
REMARK  193  A    between atoms: _496  and  _497
REMARK  194  A    between atoms: _496  and  _499
REMARK  195  A    between atoms: _499  and  _500
REMARK  196  A    between atoms: _502  and  _504
REMARK  197  A    between atoms: _504  and  _505
REMARK  198  A    between atoms: _504  and  _507
REMARK  199  A    between atoms: _507  and  _508
REMARK  200  A    between atoms: _513  and  _515
REMARK  201  A    between atoms: _515  and  _516
REMARK  202  A    between atoms: _515  and  _518
REMARK  203  A    between atoms: _518  and  _519
REMARK  204  A    between atoms: _529  and  _531
REMARK  205  A    between atoms: _531  and  _532
REMARK  206  A    between atoms: _531  and  _534
REMARK  207  A    between atoms: _534  and  _535
REMARK  208  A    between atoms: _538  and  _540
REMARK  209  A    between atoms: _540  and  _541
REMARK  210  A    between atoms: _540  and  _543
REMARK  211  A    between atoms: _543  and  _544
REMARK  212  A    between atoms: _549  and  _550
REMARK  213  A    between atoms: _552  and  _554
REMARK  214  A    between atoms: _554  and  _555
REMARK  215  A    between atoms: _554  and  _557
REMARK  216  A    between atoms: _557  and  _558
REMARK  217  A    between atoms: _561  and  _563
REMARK  218  A    between atoms: _563  and  _564
REMARK  219  A    between atoms: _563  and  _566
REMARK  220  A    between atoms: _566  and  _567
REMARK  221  A    between atoms: _567  and  _568
REMARK  222  A    between atoms: _571  and  _573
REMARK  223  A    between atoms: _573  and  _574
REMARK  224  A    between atoms: _573  and  _576
REMARK  225  A    between atoms: _576  and  _577
REMARK  226  A    between atoms: _582  and  _584
REMARK  227  A    between atoms: _584  and  _585
REMARK  228  A    between atoms: _587  and  _589
REMARK  229  A    between atoms: _589  and  _590
REMARK  230  A    between atoms: _589  and  _592
REMARK  231  A    between atoms: _592  and  _593
REMARK  232  A    between atoms: _593  and  _594
REMARK  233  A    between atoms: _596  and  _598
REMARK  234  A    between atoms: _598  and  _599
REMARK  235  A    between atoms: _598  and  _601
REMARK  236  A    between atoms: _601  and  _602
REMARK  237  A    between atoms: _605  and  _607
REMARK  238  A    between atoms: _607  and  _608
REMARK  239  A    between atoms: _607  and  _610
REMARK  240  A    between atoms: _610  and  _611
REMARK  241  A    between atoms: _621  and  _623
REMARK  242  A    between atoms: _623  and  _624
REMARK  243  A    between atoms: _623  and  _626
REMARK  244  A    between atoms: _626  and  _627
REMARK  245  A    between atoms: _629  and  _631
REMARK  246  A    between atoms: _631  and  _632
REMARK  247  A    between atoms: _631  and  _634
REMARK  248  A    between atoms: _634  and  _635
REMARK  249  A    between atoms: _640  and  _642
REMARK  250  A    between atoms: _642  and  _643
REMARK  251  A    between atoms: _642  and  _645
REMARK  252  A    between atoms: _645  and  _646
REMARK  253  A    between atoms: _652  and  _654
REMARK  254  A    between atoms: _654  and  _655
REMARK  255  A    between atoms: _654  and  _657
REMARK  256  A    between atoms: _657  and  _658
REMARK  257  A    between atoms: _658  and  _659
REMARK  258  A    between atoms: _662  and  _664
REMARK  259  A    between atoms: _664  and  _665
REMARK  260  A    between atoms: _664  and  _667
REMARK  261  A    between atoms: _667  and  _668
REMARK  262  A    between atoms: _678  and  _680
REMARK  263  A    between atoms: _680  and  _681
REMARK  264  A    between atoms: _680  and  _683
REMARK  265  A    between atoms: _683  and  _684
REMARK  266  A    between atoms: _687  and  _689
REMARK  267  A    between atoms: _689  and  _690
REMARK  268  A    between atoms: _689  and  _692
REMARK  269  A    between atoms: _692  and  _693
REMARK  270  A    between atoms: _695  and  _697
REMARK  271  A    between atoms: _697  and  _698
REMARK  272  A    between atoms: _697  and  _700
REMARK  273  A    between atoms: _700  and  _701
REMARK  274  A    between atoms: _703  and  _705
REMARK  275  A    between atoms: _705  and  _706
REMARK  276  A    between atoms: _705  and  _708
REMARK  277  A    between atoms: _708  and  _709
REMARK                            x       y       z     vdW  Elec       q    Type
REMARK                         _______ _______ _______ _____ _____    ______ ____
ROOT
ATOM      1  O   HOH     1       2.649  -3.782  53.863  0.00  0.00    +0.000 OA
ENDROOT
TORSDOF 0
REMARK  Name = ../refined-set-2016/4qll/4qll_pocket.pdb
REMARK  277 active torsions:
REMARK  status: ('A' for Active; 'I' for Inactive)
REMARK    1  A    between atoms: _1  and  _3
REMARK    2  A    between atoms: _3  and  _4
REMARK    3  A    between atoms: _3  and  _6
REMARK    4  A    between atoms: _9  and  _11
REMARK    5  A    between atoms: _11  and  _12
REMARK    6  A    between atoms: _11  and  _14
REMARK    7  A    between atoms: _14  and  _15
REMARK    8  A    between atoms: _18  and  _20
REMARK    9  A    between atoms: _20  and  _21
REMARK   10  A    between atoms: _20  and  _23
REMARK   11  A    between atoms: _23  and  _24
REMARK   12  A    between atoms: _26  and  _28
REMARK   13  A    between atoms: _28  and  _29
REMARK   14  A    between atoms: _28  and  _31
REMARK   15  A    between atoms: _31  and  _32
REMARK   16  A    between atoms: _32  and  _33
REMARK   17  A    between atoms: _38  and  _40
REMARK   18  A    between atoms: _40  and  _41
REMARK   19  A    between atoms: _40  and  _43
REMARK   20  A    between atoms: _43  and  _44
REMARK   21  A    between atoms: _44  and  _45
REMARK   22  A    between atoms: _45  and  _46
REMARK   23  A    between atoms: _55  and  _57
REMARK   24  A    between atoms: _57  and  _58
REMARK   25  A    between atoms: _57  and  _60
REMARK   26  A    between atoms: _60  and  _61
REMARK   27  A    between atoms: _66  and  _68
REMARK   28  A    between atoms: _68  and  _69
REMARK   29  A    between atoms: _68  and  _71
REMARK   30  A    between atoms: _71  and  _72
REMARK   31  A    between atoms: _77  and  _78
REMARK   32  A    between atoms: _80  and  _82
REMARK   33  A    between atoms: _82  and  _83
REMARK   34  A    between atoms: _82  and  _85
REMARK   35  A    between atoms: _85  and  _86
REMARK   36  A    between atoms: _91  and  _93
REMARK   37  A    between atoms: _93  and  _94
REMARK   38  A    between atoms: _93  and  _96
REMARK   39  A    between atoms: _96  and  _97
REMARK   40  A    between atoms: _97  and  _98
REMARK   41  A    between atoms: _103  and  _105
REMARK   42  A    between atoms: _105  and  _106
REMARK   43  A    between atoms: _105  and  _108
REMARK   44  A    between atoms: _108  and  _109
REMARK   45  A    between atoms: _109  and  _110
REMARK   46  A    between atoms: _110  and  _111
REMARK   47  A    between atoms: _120  and  _122
REMARK   48  A    between atoms: _122  and  _123
REMARK   49  A    between atoms: _122  and  _125
REMARK   50  A    between atoms: _125  and  _126
REMARK   51  A    between atoms: _129  and  _131
REMARK   52  A    between atoms: _131  and  _132
REMARK   53  A    between atoms: _131  and  _134
REMARK   54  A    between atoms: _134  and  _135
REMARK   55  A    between atoms: _138  and  _140
REMARK   56  A    between atoms: _140  and  _141
REMARK   57  A    between atoms: _140  and  _143
REMARK   58  A    between atoms: _143  and  _144
REMARK   59  A    between atoms: _147  and  _149
REMARK   60  A    between atoms: _149  and  _150
REMARK   61  A    between atoms: _149  and  _152
REMARK   62  A    between atoms: _152  and  _153
REMARK   63  A    between atoms: _156  and  _158
REMARK   64  A    between atoms: _158  and  _159
REMARK   65  A    between atoms: _162  and  _164
REMARK   66  A    between atoms: _164  and  _165
REMARK   67  A    between atoms: _164  and  _167
REMARK   68  A    between atoms: _167  and  _168
REMARK   69  A    between atoms: _171  and  _173
REMARK   70  A    between atoms: _173  and  _174
REMARK   71  A    between atoms: _173  and  _176
REMARK   72  A    between atoms: _176  and  _177
REMARK   73  A    between atoms: _182  and  _184
REMARK   74  A    between atoms: _184  and  _185
REMARK   75  A    between atoms: _184  and  _187
REMARK   76  A    between atoms: _190  and  _192
REMARK   77  A    between atoms: _192  and  _193
REMARK   78  A    between atoms: _192  and  _195
REMARK   79  A    between atoms: _195  and  _196
REMARK   80  A    between atoms: _199  and  _201
REMARK   81  A    between atoms: _201  and  _202
REMARK   82  A    between atoms: _201  and  _204
REMARK   83  A    between atoms: _204  and  _205
REMARK   84  A    between atoms: _208  and  _210
REMARK   85  A    between atoms: _210  and  _211
REMARK   86  A    between atoms: _210  and  _213
REMARK   87  A    between atoms: _213  and  _214
REMARK   88  A    between atoms: _220  and  _222
REMARK   89  A    between atoms: _222  and  _223
REMARK   90  A    between atoms: _222  and  _225
REMARK   91  A    between atoms: _225  and  _226
REMARK   92  A    between atoms: _231  and  _233
REMARK   93  A    between atoms: _233  and  _234
REMARK   94  A    between atoms: _233  and  _236
REMARK   95  A    between atoms: _236  and  _237
REMARK   96  A    between atoms: _247  and  _249
REMARK   97  A    between atoms: _249  and  _250
REMARK   98  A    between atoms: _249  and  _252
REMARK   99  A    between atoms: _252  and  _253
REMARK  100  A    between atoms: _258  and  _259
REMARK  101  A    between atoms: _261  and  _263
REMARK  102  A    between atoms: _263  and  _264
REMARK  103  A    between atoms: _267  and  _269
REMARK  104  A    between atoms: _269  and  _270
REMARK  105  A    between atoms: _269  and  _272
REMARK  106  A    between atoms: _272  and  _273
REMARK  107  A    between atoms: _279  and  _281
REMARK  108  A    between atoms: _281  and  _282
REMARK  109  A    between atoms: _281  and  _284
REMARK  110  A    between atoms: _284  and  _285
REMARK  111  A    between atoms: _290  and  _292
REMARK  112  A    between atoms: _292  and  _293
REMARK  113  A    between atoms: _292  and  _295
REMARK  114  A    between atoms: _295  and  _296
REMARK  115  A    between atoms: _301  and  _303
REMARK  116  A    between atoms: _303  and  _304
REMARK  117  A    between atoms: _303  and  _306
REMARK  118  A    between atoms: _306  and  _307
REMARK  119  A    between atoms: _307  and  _308
REMARK  120  A    between atoms: _313  and  _315
REMARK  121  A    between atoms: _315  and  _316
REMARK  122  A    between atoms: _315  and  _318
REMARK  123  A    between atoms: _318  and  _319
REMARK  124  A    between atoms: _324  and  _325
REMARK  125  A    between atoms: _327  and  _329
REMARK  126  A    between atoms: _329  and  _330
REMARK  127  A    between atoms: _329  and  _332
REMARK  128  A    between atoms: _332  and  _333
REMARK  129  A    between atoms: _336  and  _338
REMARK  130  A    between atoms: _338  and  _339
REMARK  131  A    between atoms: _342  and  _344
REMARK  132  A    between atoms: _344  and  _345
REMARK  133  A    between atoms: _344  and  _347
REMARK  134  A    between atoms: _347  and  _348
REMARK  135  A    between atoms: _350  and  _352
REMARK  136  A    between atoms: _352  and  _353
REMARK  137  A    between atoms: _352  and  _355
REMARK  138  A    between atoms: _355  and  _356
REMARK  139  A    between atoms: _361  and  _362
REMARK  140  A    between atoms: _364  and  _366
REMARK  141  A    between atoms: _366  and  _367
REMARK  142  A    between atoms: _366  and  _369
REMARK  143  A    between atoms: _369  and  _370
REMARK  144  A    between atoms: _370  and  _371
REMARK  145  A    between atoms: _373  and  _375
REMARK  146  A    between atoms: _375  and  _376
REMARK  147  A    between atoms: _375  and  _378
REMARK  148  A    between atoms: _378  and  _379
REMARK  149  A    between atoms: _379  and  _380
REMARK  150  A    between atoms: _380  and  _381
REMARK  151  A    between atoms: _381  and  _382
REMARK  152  A    between atoms: _386  and  _388
REMARK  153  A    between atoms: _388  and  _389
REMARK  154  A    between atoms: _388  and  _391
REMARK  155  A    between atoms: _391  and  _392
REMARK  156  A    between atoms: _397  and  _398
REMARK  157  A    between atoms: _400  and  _402
REMARK  158  A    between atoms: _402  and  _403
REMARK  159  A    between atoms: _402  and  _405
REMARK  160  A    between atoms: _405  and  _406
REMARK  161  A    between atoms: _408  and  _410
REMARK  162  A    between atoms: _410  and  _411
REMARK  163  A    between atoms: _414  and  _416
REMARK  164  A    between atoms: _416  and  _417
REMARK  165  A    between atoms: _416  and  _419
REMARK  166  A    between atoms: _419  and  _420
REMARK  167  A    between atoms: _423  and  _425
REMARK  168  A    between atoms: _425  and  _426
REMARK  169  A    between atoms: _425  and  _428
REMARK  170  A    between atoms: _428  and  _429
REMARK  171  A    between atoms: _439  and  _441
REMARK  172  A    between atoms: _441  and  _442
REMARK  173  A    between atoms: _441  and  _444
REMARK  174  A    between atoms: _444  and  _445
REMARK  175  A    between atoms: _445  and  _446
REMARK  176  A    between atoms: _451  and  _453
REMARK  177  A    between atoms: _453  and  _454
REMARK  178  A    between atoms: _453  and  _456
REMARK  179  A    between atoms: _459  and  _461
REMARK  180  A    between atoms: _461  and  _462
REMARK  181  A    between atoms: _461  and  _464
REMARK  182  A    between atoms: _464  and  _465
REMARK  183  A    between atoms: _468  and  _470
REMARK  184  A    between atoms: _470  and  _471
REMARK  185  A    between atoms: _474  and  _476
REMARK  186  A    between atoms: _476  and  _477
REMARK  187  A    between atoms: _476  and  _479
REMARK  188  A    between atoms: _482  and  _484
REMARK  189  A    between atoms: _484  and  _485
REMARK  190  A    between atoms: _484  and  _487
REMARK  191  A    between atoms: _487  and  _488
REMARK  192  A    between atoms: _494  and  _496
REMARK  193  A    between atoms: _496  and  _497
REMARK  194  A    between atoms: _496  and  _499
REMARK  195  A    between atoms: _499  and  _500
REMARK  196  A    between atoms: _502  and  _504
REMARK  197  A    between atoms: _504  and  _505
REMARK  198  A    between atoms: _504  and  _507
REMARK  199  A    between atoms: _507  and  _508
REMARK  200  A    between atoms: _513  and  _515
REMARK  201  A    between atoms: _515  and  _516
REMARK  202  A    between atoms: _515  and  _518
REMARK  203  A    between atoms: _518  and  _519
REMARK  204  A    between atoms: _529  and  _531
REMARK  205  A    between atoms: _531  and  _532
REMARK  206  A    between atoms: _531  and  _534
REMARK  207  A    between atoms: _534  and  _535
REMARK  208  A    between atoms: _538  and  _540
REMARK  209  A    between atoms: _540  and  _541
REMARK  210  A    between atoms: _540  and  _543
REMARK  211  A    between atoms: _543  and  _544
REMARK  212  A    between atoms: _549  and  _550
REMARK  213  A    between atoms: _552  and  _554
REMARK  214  A    between atoms: _554  and  _555
REMARK  215  A    between atoms: _554  and  _557
REMARK  216  A    between atoms: _557  and  _558
REMARK  217  A    between atoms: _561  and  _563
REMARK  218  A    between atoms: _563  and  _564
REMARK  219  A    between atoms: _563  and  _566
REMARK  220  A    between atoms: _566  and  _567
REMARK  221  A    between atoms: _567  and  _568
REMARK  222  A    between atoms: _571  and  _573
REMARK  223  A    between atoms: _573  and  _574
REMARK  224  A    between atoms: _573  and  _576
REMARK  225  A    between atoms: _576  and  _577
REMARK  226  A    between atoms: _582  and  _584
REMARK  227  A    between atoms: _584  and  _585
REMARK  228  A    between atoms: _587  and  _589
REMARK  229  A    between atoms: _589  and  _590
REMARK  230  A    between atoms: _589  and  _592
REMARK  231  A    between atoms: _592  and  _593
REMARK  232  A    between atoms: _593  and  _594
REMARK  233  A    between atoms: _596  and  _598
REMARK  234  A    between atoms: _598  and  _599
REMARK  235  A    between atoms: _598  and  _601
REMARK  236  A    between atoms: _601  and  _602
REMARK  237  A    between atoms: _605  and  _607
REMARK  238  A    between atoms: _607  and  _608
REMARK  239  A    between atoms: _607  and  _610
REMARK  240  A    between atoms: _610  and  _611
REMARK  241  A    between atoms: _621  and  _623
REMARK  242  A    between atoms: _623  and  _624
REMARK  243  A    between atoms: _623  and  _626
REMARK  244  A    between atoms: _626  and  _627
REMARK  245  A    between atoms: _629  and  _631
REMARK  246  A    between atoms: _631  and  _632
REMARK  247  A    between atoms: _631  and  _634
REMARK  248  A    between atoms: _634  and  _635
REMARK  249  A    between atoms: _640  and  _642
REMARK  250  A    between atoms: _642  and  _643
REMARK  251  A    between atoms: _642  and  _645
REMARK  252  A    between atoms: _645  and  _646
REMARK  253  A    between atoms: _652  and  _654
REMARK  254  A    between atoms: _654  and  _655
REMARK  255  A    between atoms: _654  and  _657
REMARK  256  A    between atoms: _657  and  _658
REMARK  257  A    between atoms: _658  and  _659
REMARK  258  A    between atoms: _662  and  _664
REMARK  259  A    between atoms: _664  and  _665
REMARK  260  A    between atoms: _664  and  _667
REMARK  261  A    between atoms: _667  and  _668
REMARK  262  A    between atoms: _678  and  _680
REMARK  263  A    between atoms: _680  and  _681
REMARK  264  A    between atoms: _680  and  _683
REMARK  265  A    between atoms: _683  and  _684
REMARK  266  A    between atoms: _687  and  _689
REMARK  267  A    between atoms: _689  and  _690
REMARK  268  A    between atoms: _689  and  _692
REMARK  269  A    between atoms: _692  and  _693
REMARK  270  A    between atoms: _695  and  _697
REMARK  271  A    between atoms: _697  and  _698
REMARK  272  A    between atoms: _697  and  _700
REMARK  273  A    between atoms: _700  and  _701
REMARK  274  A    between atoms: _703  and  _705
REMARK  275  A    between atoms: _705  and  _706
REMARK  276  A    between atoms: _705  and  _708
REMARK  277  A    between atoms: _708  and  _709
REMARK                            x       y       z     vdW  Elec       q    Type
REMARK                         _______ _______ _______ _____ _____    ______ ____
ROOT
ATOM      1  O   HOH     1       0.592  -2.623  48.496  0.00  0.00    +0.000 OA
ENDROOT
TORSDOF 0
REMARK  Name = ../refined-set-2016/4qll/4qll_pocket.pdb
REMARK  277 active torsions:
REMARK  status: ('A' for Active; 'I' for Inactive)
REMARK    1  A    between atoms: _1  and  _3
REMARK    2  A    between atoms: _3  and  _4
REMARK    3  A    between atoms: _3  and  _6
REMARK    4  A    between atoms: _9  and  _11
REMARK    5  A    between atoms: _11  and  _12
REMARK    6  A    between atoms: _11  and  _14
REMARK    7  A    between atoms: _14  and  _15
REMARK    8  A    between atoms: _18  and  _20
REMARK    9  A    between atoms: _20  and  _21
REMARK   10  A    between atoms: _20  and  _23
REMARK   11  A    between atoms: _23  and  _24
REMARK   12  A    between atoms: _26  and  _28
REMARK   13  A    between atoms: _28  and  _29
REMARK   14  A    between atoms: _28  and  _31
REMARK   15  A    between atoms: _31  and  _32
REMARK   16  A    between atoms: _32  and  _33
REMARK   17  A    between atoms: _38  and  _40
REMARK   18  A    between atoms: _40  and  _41
REMARK   19  A    between atoms: _40  and  _43
REMARK   20  A    between atoms: _43  and  _44
REMARK   21  A    between atoms: _44  and  _45
REMARK   22  A    between atoms: _45  and  _46
REMARK   23  A    between atoms: _55  and  _57
REMARK   24  A    between atoms: _57  and  _58
REMARK   25  A    between atoms: _57  and  _60
REMARK   26  A    between atoms: _60  and  _61
REMARK   27  A    between atoms: _66  and  _68
REMARK   28  A    between atoms: _68  and  _69
REMARK   29  A    between atoms: _68  and  _71
REMARK   30  A    between atoms: _71  and  _72
REMARK   31  A    between atoms: _77  and  _78
REMARK   32  A    between atoms: _80  and  _82
REMARK   33  A    between atoms: _82  and  _83
REMARK   34  A    between atoms: _82  and  _85
REMARK   35  A    between atoms: _85  and  _86
REMARK   36  A    between atoms: _91  and  _93
REMARK   37  A    between atoms: _93  and  _94
REMARK   38  A    between atoms: _93  and  _96
REMARK   39  A    between atoms: _96  and  _97
REMARK   40  A    between atoms: _97  and  _98
REMARK   41  A    between atoms: _103  and  _105
REMARK   42  A    between atoms: _105  and  _106
REMARK   43  A    between atoms: _105  and  _108
REMARK   44  A    between atoms: _108  and  _109
REMARK   45  A    between atoms: _109  and  _110
REMARK   46  A    between atoms: _110  and  _111
REMARK   47  A    between atoms: _120  and  _122
REMARK   48  A    between atoms: _122  and  _123
REMARK   49  A    between atoms: _122  and  _125
REMARK   50  A    between atoms: _125  and  _126
REMARK   51  A    between atoms: _129  and  _131
REMARK   52  A    between atoms: _131  and  _132
REMARK   53  A    between atoms: _131  and  _134
REMARK   54  A    between atoms: _134  and  _135
REMARK   55  A    between atoms: _138  and  _140
REMARK   56  A    between atoms: _140  and  _141
REMARK   57  A    between atoms: _140  and  _143
REMARK   58  A    between atoms: _143  and  _144
REMARK   59  A    between atoms: _147  and  _149
REMARK   60  A    between atoms: _149  and  _150
REMARK   61  A    between atoms: _149  and  _152
REMARK   62  A    between atoms: _152  and  _153
REMARK   63  A    between atoms: _156  and  _158
REMARK   64  A    between atoms: _158  and  _159
REMARK   65  A    between atoms: _162  and  _164
REMARK   66  A    between atoms: _164  and  _165
REMARK   67  A    between atoms: _164  and  _167
REMARK   68  A    between atoms: _167  and  _168
REMARK   69  A    between atoms: _171  and  _173
REMARK   70  A    between atoms: _173  and  _174
REMARK   71  A    between atoms: _173  and  _176
REMARK   72  A    between atoms: _176  and  _177
REMARK   73  A    between atoms: _182  and  _184
REMARK   74  A    between atoms: _184  and  _185
REMARK   75  A    between atoms: _184  and  _187
REMARK   76  A    between atoms: _190  and  _192
REMARK   77  A    between atoms: _192  and  _193
REMARK   78  A    between atoms: _192  and  _195
REMARK   79  A    between atoms: _195  and  _196
REMARK   80  A    between atoms: _199  and  _201
REMARK   81  A    between atoms: _201  and  _202
REMARK   82  A    between atoms: _201  and  _204
REMARK   83  A    between atoms: _204  and  _205
REMARK   84  A    between atoms: _208  and  _210
REMARK   85  A    between atoms: _210  and  _211
REMARK   86  A    between atoms: _210  and  _213
REMARK   87  A    between atoms: _213  and  _214
REMARK   88  A    between atoms: _220  and  _222
REMARK   89  A    between atoms: _222  and  _223
REMARK   90  A    between atoms: _222  and  _225
REMARK   91  A    between atoms: _225  and  _226
REMARK   92  A    between atoms: _231  and  _233
REMARK   93  A    between atoms: _233  and  _234
REMARK   94  A    between atoms: _233  and  _236
REMARK   95  A    between atoms: _236  and  _237
REMARK   96  A    between atoms: _247  and  _249
REMARK   97  A    between atoms: _249  and  _250
REMARK   98  A    between atoms: _249  and  _252
REMARK   99  A    between atoms: _252  and  _253
REMARK  100  A    between atoms: _258  and  _259
REMARK  101  A    between atoms: _261  and  _263
REMARK  102  A    between atoms: _263  and  _264
REMARK  103  A    between atoms: _267  and  _269
REMARK  104  A    between atoms: _269  and  _270
REMARK  105  A    between atoms: _269  and  _272
REMARK  106  A    between atoms: _272  and  _273
REMARK  107  A    between atoms: _279  and  _281
REMARK  108  A    between atoms: _281  and  _282
REMARK  109  A    between atoms: _281  and  _284
REMARK  110  A    between atoms: _284  and  _285
REMARK  111  A    between atoms: _290  and  _292
REMARK  112  A    between atoms: _292  and  _293
REMARK  113  A    between atoms: _292  and  _295
REMARK  114  A    between atoms: _295  and  _296
REMARK  115  A    between atoms: _301  and  _303
REMARK  116  A    between atoms: _303  and  _304
REMARK  117  A    between atoms: _303  and  _306
REMARK  118  A    between atoms: _306  and  _307
REMARK  119  A    between atoms: _307  and  _308
REMARK  120  A    between atoms: _313  and  _315
REMARK  121  A    between atoms: _315  and  _316
REMARK  122  A    between atoms: _315  and  _318
REMARK  123  A    between atoms: _318  and  _319
REMARK  124  A    between atoms: _324  and  _325
REMARK  125  A    between atoms: _327  and  _329
REMARK  126  A    between atoms: _329  and  _330
REMARK  127  A    between atoms: _329  and  _332
REMARK  128  A    between atoms: _332  and  _333
REMARK  129  A    between atoms: _336  and  _338
REMARK  130  A    between atoms: _338  and  _339
REMARK  131  A    between atoms: _342  and  _344
REMARK  132  A    between atoms: _344  and  _345
REMARK  133  A    between atoms: _344  and  _347
REMARK  134  A    between atoms: _347  and  _348
REMARK  135  A    between atoms: _350  and  _352
REMARK  136  A    between atoms: _352  and  _353
REMARK  137  A    between atoms: _352  and  _355
REMARK  138  A    between atoms: _355  and  _356
REMARK  139  A    between atoms: _361  and  _362
REMARK  140  A    between atoms: _364  and  _366
REMARK  141  A    between atoms: _366  and  _367
REMARK  142  A    between atoms: _366  and  _369
REMARK  143  A    between atoms: _369  and  _370
REMARK  144  A    between atoms: _370  and  _371
REMARK  145  A    between atoms: _373  and  _375
REMARK  146  A    between atoms: _375  and  _376
REMARK  147  A    between atoms: _375  and  _378
REMARK  148  A    between atoms: _378  and  _379
REMARK  149  A    between atoms: _379  and  _380
REMARK  150  A    between atoms: _380  and  _381
REMARK  151  A    between atoms: _381  and  _382
REMARK  152  A    between atoms: _386  and  _388
REMARK  153  A    between atoms: _388  and  _389
REMARK  154  A    between atoms: _388  and  _391
REMARK  155  A    between atoms: _391  and  _392
REMARK  156  A    between atoms: _397  and  _398
REMARK  157  A    between atoms: _400  and  _402
REMARK  158  A    between atoms: _402  and  _403
REMARK  159  A    between atoms: _402  and  _405
REMARK  160  A    between atoms: _405  and  _406
REMARK  161  A    between atoms: _408  and  _410
REMARK  162  A    between atoms: _410  and  _411
REMARK  163  A    between atoms: _414  and  _416
REMARK  164  A    between atoms: _416  and  _417
REMARK  165  A    between atoms: _416  and  _419
REMARK  166  A    between atoms: _419  and  _420
REMARK  167  A    between atoms: _423  and  _425
REMARK  168  A    between atoms: _425  and  _426
REMARK  169  A    between atoms: _425  and  _428
REMARK  170  A    between atoms: _428  and  _429
REMARK  171  A    between atoms: _439  and  _441
REMARK  172  A    between atoms: _441  and  _442
REMARK  173  A    between atoms: _441  and  _444
REMARK  174  A    between atoms: _444  and  _445
REMARK  175  A    between atoms: _445  and  _446
REMARK  176  A    between atoms: _451  and  _453
REMARK  177  A    between atoms: _453  and  _454
REMARK  178  A    between atoms: _453  and  _456
REMARK  179  A    between atoms: _459  and  _461
REMARK  180  A    between atoms: _461  and  _462
REMARK  181  A    between atoms: _461  and  _464
REMARK  182  A    between atoms: _464  and  _465
REMARK  183  A    between atoms: _468  and  _470
REMARK  184  A    between atoms: _470  and  _471
REMARK  185  A    between atoms: _474  and  _476
REMARK  186  A    between atoms: _476  and  _477
REMARK  187  A    between atoms: _476  and  _479
REMARK  188  A    between atoms: _482  and  _484
REMARK  189  A    between atoms: _484  and  _485
REMARK  190  A    between atoms: _484  and  _487
REMARK  191  A    between atoms: _487  and  _488
REMARK  192  A    between atoms: _494  and  _496
REMARK  193  A    between atoms: _496  and  _497
REMARK  194  A    between atoms: _496  and  _499
REMARK  195  A    between atoms: _499  and  _500
REMARK  196  A    between atoms: _502  and  _504
REMARK  197  A    between atoms: _504  and  _505
REMARK  198  A    between atoms: _504  and  _507
REMARK  199  A    between atoms: _507  and  _508
REMARK  200  A    between atoms: _513  and  _515
REMARK  201  A    between atoms: _515  and  _516
REMARK  202  A    between atoms: _515  and  _518
REMARK  203  A    between atoms: _518  and  _519
REMARK  204  A    between atoms: _529  and  _531
REMARK  205  A    between atoms: _531  and  _532
REMARK  206  A    between atoms: _531  and  _534
REMARK  207  A    between atoms: _534  and  _535
REMARK  208  A    between atoms: _538  and  _540
REMARK  209  A    between atoms: _540  and  _541
REMARK  210  A    between atoms: _540  and  _543
REMARK  211  A    between atoms: _543  and  _544
REMARK  212  A    between atoms: _549  and  _550
REMARK  213  A    between atoms: _552  and  _554
REMARK  214  A    between atoms: _554  and  _555
REMARK  215  A    between atoms: _554  and  _557
REMARK  216  A    between atoms: _557  and  _558
REMARK  217  A    between atoms: _561  and  _563
REMARK  218  A    between atoms: _563  and  _564
REMARK  219  A    between atoms: _563  and  _566
REMARK  220  A    between atoms: _566  and  _567
REMARK  221  A    between atoms: _567  and  _568
REMARK  222  A    between atoms: _571  and  _573
REMARK  223  A    between atoms: _573  and  _574
REMARK  224  A    between atoms: _573  and  _576
REMARK  225  A    between atoms: _576  and  _577
REMARK  226  A    between atoms: _582  and  _584
REMARK  227  A    between atoms: _584  and  _585
REMARK  228  A    between atoms: _587  and  _589
REMARK  229  A    between atoms: _589  and  _590
REMARK  230  A    between atoms: _589  and  _592
REMARK  231  A    between atoms: _592  and  _593
REMARK  232  A    between atoms: _593  and  _594
REMARK  233  A    between atoms: _596  and  _598
REMARK  234  A    between atoms: _598  and  _599
REMARK  235  A    between atoms: _598  and  _601
REMARK  236  A    between atoms: _601  and  _602
REMARK  237  A    between atoms: _605  and  _607
REMARK  238  A    between atoms: _607  and  _608
REMARK  239  A    between atoms: _607  and  _610
REMARK  240  A    between atoms: _610  and  _611
REMARK  241  A    between atoms: _621  and  _623
REMARK  242  A    between atoms: _623  and  _624
REMARK  243  A    between atoms: _623  and  _626
REMARK  244  A    between atoms: _626  and  _627
REMARK  245  A    between atoms: _629  and  _631
REMARK  246  A    between atoms: _631  and  _632
REMARK  247  A    between atoms: _631  and  _634
REMARK  248  A    between atoms: _634  and  _635
REMARK  249  A    between atoms: _640  and  _642
REMARK  250  A    between atoms: _642  and  _643
REMARK  251  A    between atoms: _642  and  _645
REMARK  252  A    between atoms: _645  and  _646
REMARK  253  A    between atoms: _652  and  _654
REMARK  254  A    between atoms: _654  and  _655
REMARK  255  A    between atoms: _654  and  _657
REMARK  256  A    between atoms: _657  and  _658
REMARK  257  A    between atoms: _658  and  _659
REMARK  258  A    between atoms: _662  and  _664
REMARK  259  A    between atoms: _664  and  _665
REMARK  260  A    between atoms: _664  and  _667
REMARK  261  A    between atoms: _667  and  _668
REMARK  262  A    between atoms: _678  and  _680
REMARK  263  A    between atoms: _680  and  _681
REMARK  264  A    between atoms: _680  and  _683
REMARK  265  A    between atoms: _683  and  _684
REMARK  266  A    between atoms: _687  and  _689
REMARK  267  A    between atoms: _689  and  _690
REMARK  268  A    between atoms: _689  and  _692
REMARK  269  A    between atoms: _692  and  _693
REMARK  270  A    between atoms: _695  and  _697
REMARK  271  A    between atoms: _697  and  _698
REMARK  272  A    between atoms: _697  and  _700
REMARK  273  A    between atoms: _700  and  _701
REMARK  274  A    between atoms: _703  and  _705
REMARK  275  A    between atoms: _705  and  _706
REMARK  276  A    between atoms: _705  and  _708
REMARK  277  A    between atoms: _708  and  _709
REMARK                            x       y       z     vdW  Elec       q    Type
REMARK                         _______ _______ _______ _____ _____    ______ ____
ROOT
ATOM      1  O   HOH     1       5.233   5.428  49.654  0.00  0.00    +0.000 OA
ENDROOT
TORSDOF 0
REMARK  Name = ../refined-set-2016/4qll/4qll_pocket.pdb
REMARK  277 active torsions:
REMARK  status: ('A' for Active; 'I' for Inactive)
REMARK    1  A    between atoms: _1  and  _3
REMARK    2  A    between atoms: _3  and  _4
REMARK    3  A    between atoms: _3  and  _6
REMARK    4  A    between atoms: _9  and  _11
REMARK    5  A    between atoms: _11  and  _12
REMARK    6  A    between atoms: _11  and  _14
REMARK    7  A    between atoms: _14  and  _15
REMARK    8  A    between atoms: _18  and  _20
REMARK    9  A    between atoms: _20  and  _21
REMARK   10  A    between atoms: _20  and  _23
REMARK   11  A    between atoms: _23  and  _24
REMARK   12  A    between atoms: _26  and  _28
REMARK   13  A    between atoms: _28  and  _29
REMARK   14  A    between atoms: _28  and  _31
REMARK   15  A    between atoms: _31  and  _32
REMARK   16  A    between atoms: _32  and  _33
REMARK   17  A    between atoms: _38  and  _40
REMARK   18  A    between atoms: _40  and  _41
REMARK   19  A    between atoms: _40  and  _43
REMARK   20  A    between atoms: _43  and  _44
REMARK   21  A    between atoms: _44  and  _45
REMARK   22  A    between atoms: _45  and  _46
REMARK   23  A    between atoms: _55  and  _57
REMARK   24  A    between atoms: _57  and  _58
REMARK   25  A    between atoms: _57  and  _60
REMARK   26  A    between atoms: _60  and  _61
REMARK   27  A    between atoms: _66  and  _68
REMARK   28  A    between atoms: _68  and  _69
REMARK   29  A    between atoms: _68  and  _71
REMARK   30  A    between atoms: _71  and  _72
REMARK   31  A    between atoms: _77  and  _78
REMARK   32  A    between atoms: _80  and  _82
REMARK   33  A    between atoms: _82  and  _83
REMARK   34  A    between atoms: _82  and  _85
REMARK   35  A    between atoms: _85  and  _86
REMARK   36  A    between atoms: _91  and  _93
REMARK   37  A    between atoms: _93  and  _94
REMARK   38  A    between atoms: _93  and  _96
REMARK   39  A    between atoms: _96  and  _97
REMARK   40  A    between atoms: _97  and  _98
REMARK   41  A    between atoms: _103  and  _105
REMARK   42  A    between atoms: _105  and  _106
REMARK   43  A    between atoms: _105  and  _108
REMARK   44  A    between atoms: _108  and  _109
REMARK   45  A    between atoms: _109  and  _110
REMARK   46  A    between atoms: _110  and  _111
REMARK   47  A    between atoms: _120  and  _122
REMARK   48  A    between atoms: _122  and  _123
REMARK   49  A    between atoms: _122  and  _125
REMARK   50  A    between atoms: _125  and  _126
REMARK   51  A    between atoms: _129  and  _131
REMARK   52  A    between atoms: _131  and  _132
REMARK   53  A    between atoms: _131  and  _134
REMARK   54  A    between atoms: _134  and  _135
REMARK   55  A    between atoms: _138  and  _140
REMARK   56  A    between atoms: _140  and  _141
REMARK   57  A    between atoms: _140  and  _143
REMARK   58  A    between atoms: _143  and  _144
REMARK   59  A    between atoms: _147  and  _149
REMARK   60  A    between atoms: _149  and  _150
REMARK   61  A    between atoms: _149  and  _152
REMARK   62  A    between atoms: _152  and  _153
REMARK   63  A    between atoms: _156  and  _158
REMARK   64  A    between atoms: _158  and  _159
REMARK   65  A    between atoms: _162  and  _164
REMARK   66  A    between atoms: _164  and  _165
REMARK   67  A    between atoms: _164  and  _167
REMARK   68  A    between atoms: _167  and  _168
REMARK   69  A    between atoms: _171  and  _173
REMARK   70  A    between atoms: _173  and  _174
REMARK   71  A    between atoms: _173  and  _176
REMARK   72  A    between atoms: _176  and  _177
REMARK   73  A    between atoms: _182  and  _184
REMARK   74  A    between atoms: _184  and  _185
REMARK   75  A    between atoms: _184  and  _187
REMARK   76  A    between atoms: _190  and  _192
REMARK   77  A    between atoms: _192  and  _193
REMARK   78  A    between atoms: _192  and  _195
REMARK   79  A    between atoms: _195  and  _196
REMARK   80  A    between atoms: _199  and  _201
REMARK   81  A    between atoms: _201  and  _202
REMARK   82  A    between atoms: _201  and  _204
REMARK   83  A    between atoms: _204  and  _205
REMARK   84  A    between atoms: _208  and  _210
REMARK   85  A    between atoms: _210  and  _211
REMARK   86  A    between atoms: _210  and  _213
REMARK   87  A    between atoms: _213  and  _214
REMARK   88  A    between atoms: _220  and  _222
REMARK   89  A    between atoms: _222  and  _223
REMARK   90  A    between atoms: _222  and  _225
REMARK   91  A    between atoms: _225  and  _226
REMARK   92  A    between atoms: _231  and  _233
REMARK   93  A    between atoms: _233  and  _234
REMARK   94  A    between atoms: _233  and  _236
REMARK   95  A    between atoms: _236  and  _237
REMARK   96  A    between atoms: _247  and  _249
REMARK   97  A    between atoms: _249  and  _250
REMARK   98  A    between atoms: _249  and  _252
REMARK   99  A    between atoms: _252  and  _253
REMARK  100  A    between atoms: _258  and  _259
REMARK  101  A    between atoms: _261  and  _263
REMARK  102  A    between atoms: _263  and  _264
REMARK  103  A    between atoms: _267  and  _269
REMARK  104  A    between atoms: _269  and  _270
REMARK  105  A    between atoms: _269  and  _272
REMARK  106  A    between atoms: _272  and  _273
REMARK  107  A    between atoms: _279  and  _281
REMARK  108  A    between atoms: _281  and  _282
REMARK  109  A    between atoms: _281  and  _284
REMARK  110  A    between atoms: _284  and  _285
REMARK  111  A    between atoms: _290  and  _292
REMARK  112  A    between atoms: _292  and  _293
REMARK  113  A    between atoms: _292  and  _295
REMARK  114  A    between atoms: _295  and  _296
REMARK  115  A    between atoms: _301  and  _303
REMARK  116  A    between atoms: _303  and  _304
REMARK  117  A    between atoms: _303  and  _306
REMARK  118  A    between atoms: _306  and  _307
REMARK  119  A    between atoms: _307  and  _308
REMARK  120  A    between atoms: _313  and  _315
REMARK  121  A    between atoms: _315  and  _316
REMARK  122  A    between atoms: _315  and  _318
REMARK  123  A    between atoms: _318  and  _319
REMARK  124  A    between atoms: _324  and  _325
REMARK  125  A    between atoms: _327  and  _329
REMARK  126  A    between atoms: _329  and  _330
REMARK  127  A    between atoms: _329  and  _332
REMARK  128  A    between atoms: _332  and  _333
REMARK  129  A    between atoms: _336  and  _338
REMARK  130  A    between atoms: _338  and  _339
REMARK  131  A    between atoms: _342  and  _344
REMARK  132  A    between atoms: _344  and  _345
REMARK  133  A    between atoms: _344  and  _347
REMARK  134  A    between atoms: _347  and  _348
REMARK  135  A    between atoms: _350  and  _352
REMARK  136  A    between atoms: _352  and  _353
REMARK  137  A    between atoms: _352  and  _355
REMARK  138  A    between atoms: _355  and  _356
REMARK  139  A    between atoms: _361  and  _362
REMARK  140  A    between atoms: _364  and  _366
REMARK  141  A    between atoms: _366  and  _367
REMARK  142  A    between atoms: _366  and  _369
REMARK  143  A    between atoms: _369  and  _370
REMARK  144  A    between atoms: _370  and  _371
REMARK  145  A    between atoms: _373  and  _375
REMARK  146  A    between atoms: _375  and  _376
REMARK  147  A    between atoms: _375  and  _378
REMARK  148  A    between atoms: _378  and  _379
REMARK  149  A    between atoms: _379  and  _380
REMARK  150  A    between atoms: _380  and  _381
REMARK  151  A    between atoms: _381  and  _382
REMARK  152  A    between atoms: _386  and  _388
REMARK  153  A    between atoms: _388  and  _389
REMARK  154  A    between atoms: _388  and  _391
REMARK  155  A    between atoms: _391  and  _392
REMARK  156  A    between atoms: _397  and  _398
REMARK  157  A    between atoms: _400  and  _402
REMARK  158  A    between atoms: _402  and  _403
REMARK  159  A    between atoms: _402  and  _405
REMARK  160  A    between atoms: _405  and  _406
REMARK  161  A    between atoms: _408  and  _410
REMARK  162  A    between atoms: _410  and  _411
REMARK  163  A    between atoms: _414  and  _416
REMARK  164  A    between atoms: _416  and  _417
REMARK  165  A    between atoms: _416  and  _419
REMARK  166  A    between atoms: _419  and  _420
REMARK  167  A    between atoms: _423  and  _425
REMARK  168  A    between atoms: _425  and  _426
REMARK  169  A    between atoms: _425  and  _428
REMARK  170  A    between atoms: _428  and  _429
REMARK  171  A    between atoms: _439  and  _441
REMARK  172  A    between atoms: _441  and  _442
REMARK  173  A    between atoms: _441  and  _444
REMARK  174  A    between atoms: _444  and  _445
REMARK  175  A    between atoms: _445  and  _446
REMARK  176  A    between atoms: _451  and  _453
REMARK  177  A    between atoms: _453  and  _454
REMARK  178  A    between atoms: _453  and  _456
REMARK  179  A    between atoms: _459  and  _461
REMARK  180  A    between atoms: _461  and  _462
REMARK  181  A    between atoms: _461  and  _464
REMARK  182  A    between atoms: _464  and  _465
REMARK  183  A    between atoms: _468  and  _470
REMARK  184  A    between atoms: _470  and  _471
REMARK  185  A    between atoms: _474  and  _476
REMARK  186  A    between atoms: _476  and  _477
REMARK  187  A    between atoms: _476  and  _479
REMARK  188  A    between atoms: _482  and  _484
REMARK  189  A    between atoms: _484  and  _485
REMARK  190  A    between atoms: _484  and  _487
REMARK  191  A    between atoms: _487  and  _488
REMARK  192  A    between atoms: _494  and  _496
REMARK  193  A    between atoms: _496  and  _497
REMARK  194  A    between atoms: _496  and  _499
REMARK  195  A    between atoms: _499  and  _500
REMARK  196  A    between atoms: _502  and  _504
REMARK  197  A    between atoms: _504  and  _505
REMARK  198  A    between atoms: _504  and  _507
REMARK  199  A    between atoms: _507  and  _508
REMARK  200  A    between atoms: _513  and  _515
REMARK  201  A    between atoms: _515  and  _516
REMARK  202  A    between atoms: _515  and  _518
REMARK  203  A    between atoms: _518  and  _519
REMARK  204  A    between atoms: _529  and  _531
REMARK  205  A    between atoms: _531  and  _532
REMARK  206  A    between atoms: _531  and  _534
REMARK  207  A    between atoms: _534  and  _535
REMARK  208  A    between atoms: _538  and  _540
REMARK  209  A    between atoms: _540  and  _541
REMARK  210  A    between atoms: _540  and  _543
REMARK  211  A    between atoms: _543  and  _544
REMARK  212  A    between atoms: _549  and  _550
REMARK  213  A    between atoms: _552  and  _554
REMARK  214  A    between atoms: _554  and  _555
REMARK  215  A    between atoms: _554  and  _557
REMARK  216  A    between atoms: _557  and  _558
REMARK  217  A    between atoms: _561  and  _563
REMARK  218  A    between atoms: _563  and  _564
REMARK  219  A    between atoms: _563  and  _566
REMARK  220  A    between atoms: _566  and  _567
REMARK  221  A    between atoms: _567  and  _568
REMARK  222  A    between atoms: _571  and  _573
REMARK  223  A    between atoms: _573  and  _574
REMARK  224  A    between atoms: _573  and  _576
REMARK  225  A    between atoms: _576  and  _577
REMARK  226  A    between atoms: _582  and  _584
REMARK  227  A    between atoms: _584  and  _585
REMARK  228  A    between atoms: _587  and  _589
REMARK  229  A    between atoms: _589  and  _590
REMARK  230  A    between atoms: _589  and  _592
REMARK  231  A    between atoms: _592  and  _593
REMARK  232  A    between atoms: _593  and  _594
REMARK  233  A    between atoms: _596  and  _598
REMARK  234  A    between atoms: _598  and  _599
REMARK  235  A    between atoms: _598  and  _601
REMARK  236  A    between atoms: _601  and  _602
REMARK  237  A    between atoms: _605  and  _607
REMARK  238  A    between atoms: _607  and  _608
REMARK  239  A    between atoms: _607  and  _610
REMARK  240  A    between atoms: _610  and  _611
REMARK  241  A    between atoms: _621  and  _623
REMARK  242  A    between atoms: _623  and  _624
REMARK  243  A    between atoms: _623  and  _626
REMARK  244  A    between atoms: _626  and  _627
REMARK  245  A    between atoms: _629  and  _631
REMARK  246  A    between atoms: _631  and  _632
REMARK  247  A    between atoms: _631  and  _634
REMARK  248  A    between atoms: _634  and  _635
REMARK  249  A    between atoms: _640  and  _642
REMARK  250  A    between atoms: _642  and  _643
REMARK  251  A    between atoms: _642  and  _645
REMARK  252  A    between atoms: _645  and  _646
REMARK  253  A    between atoms: _652  and  _654
REMARK  254  A    between atoms: _654  and  _655
REMARK  255  A    between atoms: _654  and  _657
REMARK  256  A    between atoms: _657  and  _658
REMARK  257  A    between atoms: _658  and  _659
REMARK  258  A    between atoms: _662  and  _664
REMARK  259  A    between atoms: _664  and  _665
REMARK  260  A    between atoms: _664  and  _667
REMARK  261  A    between atoms: _667  and  _668
REMARK  262  A    between atoms: _678  and  _680
REMARK  263  A    between atoms: _680  and  _681
REMARK  264  A    between atoms: _680  and  _683
REMARK  265  A    between atoms: _683  and  _684
REMARK  266  A    between atoms: _687  and  _689
REMARK  267  A    between atoms: _689  and  _690
REMARK  268  A    between atoms: _689  and  _692
REMARK  269  A    between atoms: _692  and  _693
REMARK  270  A    between atoms: _695  and  _697
REMARK  271  A    between atoms: _697  and  _698
REMARK  272  A    between atoms: _697  and  _700
REMARK  273  A    between atoms: _700  and  _701
REMARK  274  A    between atoms: _703  and  _705
REMARK  275  A    between atoms: _705  and  _706
REMARK  276  A    between atoms: _705  and  _708
REMARK  277  A    between atoms: _708  and  _709
REMARK                            x       y       z     vdW  Elec       q    Type
REMARK                         _______ _______ _______ _____ _____    ______ ____
ROOT
ATOM      1  O   HOH     1       8.015   3.685  42.618  0.00  0.00    +0.000 OA
ENDROOT
TORSDOF 0
REMARK  Name = ../refined-set-2016/4qll/4qll_pocket.pdb
REMARK  277 active torsions:
REMARK  status: ('A' for Active; 'I' for Inactive)
REMARK    1  A    between atoms: _1  and  _3
REMARK    2  A    between atoms: _3  and  _4
REMARK    3  A    between atoms: _3  and  _6
REMARK    4  A    between atoms: _9  and  _11
REMARK    5  A    between atoms: _11  and  _12
REMARK    6  A    between atoms: _11  and  _14
REMARK    7  A    between atoms: _14  and  _15
REMARK    8  A    between atoms: _18  and  _20
REMARK    9  A    between atoms: _20  and  _21
REMARK   10  A    between atoms: _20  and  _23
REMARK   11  A    between atoms: _23  and  _24
REMARK   12  A    between atoms: _26  and  _28
REMARK   13  A    between atoms: _28  and  _29
REMARK   14  A    between atoms: _28  and  _31
REMARK   15  A    between atoms: _31  and  _32
REMARK   16  A    between atoms: _32  and  _33
REMARK   17  A    between atoms: _38  and  _40
REMARK   18  A    between atoms: _40  and  _41
REMARK   19  A    between atoms: _40  and  _43
REMARK   20  A    between atoms: _43  and  _44
REMARK   21  A    between atoms: _44  and  _45
REMARK   22  A    between atoms: _45  and  _46
REMARK   23  A    between atoms: _55  and  _57
REMARK   24  A    between atoms: _57  and  _58
REMARK   25  A    between atoms: _57  and  _60
REMARK   26  A    between atoms: _60  and  _61
REMARK   27  A    between atoms: _66  and  _68
REMARK   28  A    between atoms: _68  and  _69
REMARK   29  A    between atoms: _68  and  _71
REMARK   30  A    between atoms: _71  and  _72
REMARK   31  A    between atoms: _77  and  _78
REMARK   32  A    between atoms: _80  and  _82
REMARK   33  A    between atoms: _82  and  _83
REMARK   34  A    between atoms: _82  and  _85
REMARK   35  A    between atoms: _85  and  _86
REMARK   36  A    between atoms: _91  and  _93
REMARK   37  A    between atoms: _93  and  _94
REMARK   38  A    between atoms: _93  and  _96
REMARK   39  A    between atoms: _96  and  _97
REMARK   40  A    between atoms: _97  and  _98
REMARK   41  A    between atoms: _103  and  _105
REMARK   42  A    between atoms: _105  and  _106
REMARK   43  A    between atoms: _105  and  _108
REMARK   44  A    between atoms: _108  and  _109
REMARK   45  A    between atoms: _109  and  _110
REMARK   46  A    between atoms: _110  and  _111
REMARK   47  A    between atoms: _120  and  _122
REMARK   48  A    between atoms: _122  and  _123
REMARK   49  A    between atoms: _122  and  _125
REMARK   50  A    between atoms: _125  and  _126
REMARK   51  A    between atoms: _129  and  _131
REMARK   52  A    between atoms: _131  and  _132
REMARK   53  A    between atoms: _131  and  _134
REMARK   54  A    between atoms: _134  and  _135
REMARK   55  A    between atoms: _138  and  _140
REMARK   56  A    between atoms: _140  and  _141
REMARK   57  A    between atoms: _140  and  _143
REMARK   58  A    between atoms: _143  and  _144
REMARK   59  A    between atoms: _147  and  _149
REMARK   60  A    between atoms: _149  and  _150
REMARK   61  A    between atoms: _149  and  _152
REMARK   62  A    between atoms: _152  and  _153
REMARK   63  A    between atoms: _156  and  _158
REMARK   64  A    between atoms: _158  and  _159
REMARK   65  A    between atoms: _162  and  _164
REMARK   66  A    between atoms: _164  and  _165
REMARK   67  A    between atoms: _164  and  _167
REMARK   68  A    between atoms: _167  and  _168
REMARK   69  A    between atoms: _171  and  _173
REMARK   70  A    between atoms: _173  and  _174
REMARK   71  A    between atoms: _173  and  _176
REMARK   72  A    between atoms: _176  and  _177
REMARK   73  A    between atoms: _182  and  _184
REMARK   74  A    between atoms: _184  and  _185
REMARK   75  A    between atoms: _184  and  _187
REMARK   76  A    between atoms: _190  and  _192
REMARK   77  A    between atoms: _192  and  _193
REMARK   78  A    between atoms: _192  and  _195
REMARK   79  A    between atoms: _195  and  _196
REMARK   80  A    between atoms: _199  and  _201
REMARK   81  A    between atoms: _201  and  _202
REMARK   82  A    between atoms: _201  and  _204
REMARK   83  A    between atoms: _204  and  _205
REMARK   84  A    between atoms: _208  and  _210
REMARK   85  A    between atoms: _210  and  _211
REMARK   86  A    between atoms: _210  and  _213
REMARK   87  A    between atoms: _213  and  _214
REMARK   88  A    between atoms: _220  and  _222
REMARK   89  A    between atoms: _222  and  _223
REMARK   90  A    between atoms: _222  and  _225
REMARK   91  A    between atoms: _225  and  _226
REMARK   92  A    between atoms: _231  and  _233
REMARK   93  A    between atoms: _233  and  _234
REMARK   94  A    between atoms: _233  and  _236
REMARK   95  A    between atoms: _236  and  _237
REMARK   96  A    between atoms: _247  and  _249
REMARK   97  A    between atoms: _249  and  _250
REMARK   98  A    between atoms: _249  and  _252
REMARK   99  A    between atoms: _252  and  _253
REMARK  100  A    between atoms: _258  and  _259
REMARK  101  A    between atoms: _261  and  _263
REMARK  102  A    between atoms: _263  and  _264
REMARK  103  A    between atoms: _267  and  _269
REMARK  104  A    between atoms: _269  and  _270
REMARK  105  A    between atoms: _269  and  _272
REMARK  106  A    between atoms: _272  and  _273
REMARK  107  A    between atoms: _279  and  _281
REMARK  108  A    between atoms: _281  and  _282
REMARK  109  A    between atoms: _281  and  _284
REMARK  110  A    between atoms: _284  and  _285
REMARK  111  A    between atoms: _290  and  _292
REMARK  112  A    between atoms: _292  and  _293
REMARK  113  A    between atoms: _292  and  _295
REMARK  114  A    between atoms: _295  and  _296
REMARK  115  A    between atoms: _301  and  _303
REMARK  116  A    between atoms: _303  and  _304
REMARK  117  A    between atoms: _303  and  _306
REMARK  118  A    between atoms: _306  and  _307
REMARK  119  A    between atoms: _307  and  _308
REMARK  120  A    between atoms: _313  and  _315
REMARK  121  A    between atoms: _315  and  _316
REMARK  122  A    between atoms: _315  and  _318
REMARK  123  A    between atoms: _318  and  _319
REMARK  124  A    between atoms: _324  and  _325
REMARK  125  A    between atoms: _327  and  _329
REMARK  126  A    between atoms: _329  and  _330
REMARK  127  A    between atoms: _329  and  _332
REMARK  128  A    between atoms: _332  and  _333
REMARK  129  A    between atoms: _336  and  _338
REMARK  130  A    between atoms: _338  and  _339
REMARK  131  A    between atoms: _342  and  _344
REMARK  132  A    between atoms: _344  and  _345
REMARK  133  A    between atoms: _344  and  _347
REMARK  134  A    between atoms: _347  and  _348
REMARK  135  A    between atoms: _350  and  _352
REMARK  136  A    between atoms: _352  and  _353
REMARK  137  A    between atoms: _352  and  _355
REMARK  138  A    between atoms: _355  and  _356
REMARK  139  A    between atoms: _361  and  _362
REMARK  140  A    between atoms: _364  and  _366
REMARK  141  A    between atoms: _366  and  _367
REMARK  142  A    between atoms: _366  and  _369
REMARK  143  A    between atoms: _369  and  _370
REMARK  144  A    between atoms: _370  and  _371
REMARK  145  A    between atoms: _373  and  _375
REMARK  146  A    between atoms: _375  and  _376
REMARK  147  A    between atoms: _375  and  _378
REMARK  148  A    between atoms: _378  and  _379
REMARK  149  A    between atoms: _379  and  _380
REMARK  150  A    between atoms: _380  and  _381
REMARK  151  A    between atoms: _381  and  _382
REMARK  152  A    between atoms: _386  and  _388
REMARK  153  A    between atoms: _388  and  _389
REMARK  154  A    between atoms: _388  and  _391
REMARK  155  A    between atoms: _391  and  _392
REMARK  156  A    between atoms: _397  and  _398
REMARK  157  A    between atoms: _400  and  _402
REMARK  158  A    between atoms: _402  and  _403
REMARK  159  A    between atoms: _402  and  _405
REMARK  160  A    between atoms: _405  and  _406
REMARK  161  A    between atoms: _408  and  _410
REMARK  162  A    between atoms: _410  and  _411
REMARK  163  A    between atoms: _414  and  _416
REMARK  164  A    between atoms: _416  and  _417
REMARK  165  A    between atoms: _416  and  _419
REMARK  166  A    between atoms: _419  and  _420
REMARK  167  A    between atoms: _423  and  _425
REMARK  168  A    between atoms: _425  and  _426
REMARK  169  A    between atoms: _425  and  _428
REMARK  170  A    between atoms: _428  and  _429
REMARK  171  A    between atoms: _439  and  _441
REMARK  172  A    between atoms: _441  and  _442
REMARK  173  A    between atoms: _441  and  _444
REMARK  174  A    between atoms: _444  and  _445
REMARK  175  A    between atoms: _445  and  _446
REMARK  176  A    between atoms: _451  and  _453
REMARK  177  A    between atoms: _453  and  _454
REMARK  178  A    between atoms: _453  and  _456
REMARK  179  A    between atoms: _459  and  _461
REMARK  180  A    between atoms: _461  and  _462
REMARK  181  A    between atoms: _461  and  _464
REMARK  182  A    between atoms: _464  and  _465
REMARK  183  A    between atoms: _468  and  _470
REMARK  184  A    between atoms: _470  and  _471
REMARK  185  A    between atoms: _474  and  _476
REMARK  186  A    between atoms: _476  and  _477
REMARK  187  A    between atoms: _476  and  _479
REMARK  188  A    between atoms: _482  and  _484
REMARK  189  A    between atoms: _484  and  _485
REMARK  190  A    between atoms: _484  and  _487
REMARK  191  A    between atoms: _487  and  _488
REMARK  192  A    between atoms: _494  and  _496
REMARK  193  A    between atoms: _496  and  _497
REMARK  194  A    between atoms: _496  and  _499
REMARK  195  A    between atoms: _499  and  _500
REMARK  196  A    between atoms: _502  and  _504
REMARK  197  A    between atoms: _504  and  _505
REMARK  198  A    between atoms: _504  and  _507
REMARK  199  A    between atoms: _507  and  _508
REMARK  200  A    between atoms: _513  and  _515
REMARK  201  A    between atoms: _515  and  _516
REMARK  202  A    between atoms: _515  and  _518
REMARK  203  A    between atoms: _518  and  _519
REMARK  204  A    between atoms: _529  and  _531
REMARK  205  A    between atoms: _531  and  _532
REMARK  206  A    between atoms: _531  and  _534
REMARK  207  A    between atoms: _534  and  _535
REMARK  208  A    between atoms: _538  and  _540
REMARK  209  A    between atoms: _540  and  _541
REMARK  210  A    between atoms: _540  and  _543
REMARK  211  A    between atoms: _543  and  _544
REMARK  212  A    between atoms: _549  and  _550
REMARK  213  A    between atoms: _552  and  _554
REMARK  214  A    between atoms: _554  and  _555
REMARK  215  A    between atoms: _554  and  _557
REMARK  216  A    between atoms: _557  and  _558
REMARK  217  A    between atoms: _561  and  _563
REMARK  218  A    between atoms: _563  and  _564
REMARK  219  A    between atoms: _563  and  _566
REMARK  220  A    between atoms: _566  and  _567
REMARK  221  A    between atoms: _567  and  _568
REMARK  222  A    between atoms: _571  and  _573
REMARK  223  A    between atoms: _573  and  _574
REMARK  224  A    between atoms: _573  and  _576
REMARK  225  A    between atoms: _576  and  _577
REMARK  226  A    between atoms: _582  and  _584
REMARK  227  A    between atoms: _584  and  _585
REMARK  228  A    between atoms: _587  and  _589
REMARK  229  A    between atoms: _589  and  _590
REMARK  230  A    between atoms: _589  and  _592
REMARK  231  A    between atoms: _592  and  _593
REMARK  232  A    between atoms: _593  and  _594
REMARK  233  A    between atoms: _596  and  _598
REMARK  234  A    between atoms: _598  and  _599
REMARK  235  A    between atoms: _598  and  _601
REMARK  236  A    between atoms: _601  and  _602
REMARK  237  A    between atoms: _605  and  _607
REMARK  238  A    between atoms: _607  and  _608
REMARK  239  A    between atoms: _607  and  _610
REMARK  240  A    between atoms: _610  and  _611
REMARK  241  A    between atoms: _621  and  _623
REMARK  242  A    between atoms: _623  and  _624
REMARK  243  A    between atoms: _623  and  _626
REMARK  244  A    between atoms: _626  and  _627
REMARK  245  A    between atoms: _629  and  _631
REMARK  246  A    between atoms: _631  and  _632
REMARK  247  A    between atoms: _631  and  _634
REMARK  248  A    between atoms: _634  and  _635
REMARK  249  A    between atoms: _640  and  _642
REMARK  250  A    between atoms: _642  and  _643
REMARK  251  A    between atoms: _642  and  _645
REMARK  252  A    between atoms: _645  and  _646
REMARK  253  A    between atoms: _652  and  _654
REMARK  254  A    between atoms: _654  and  _655
REMARK  255  A    between atoms: _654  and  _657
REMARK  256  A    between atoms: _657  and  _658
REMARK  257  A    between atoms: _658  and  _659
REMARK  258  A    between atoms: _662  and  _664
REMARK  259  A    between atoms: _664  and  _665
REMARK  260  A    between atoms: _664  and  _667
REMARK  261  A    between atoms: _667  and  _668
REMARK  262  A    between atoms: _678  and  _680
REMARK  263  A    between atoms: _680  and  _681
REMARK  264  A    between atoms: _680  and  _683
REMARK  265  A    between atoms: _683  and  _684
REMARK  266  A    between atoms: _687  and  _689
REMARK  267  A    between atoms: _689  and  _690
REMARK  268  A    between atoms: _689  and  _692
REMARK  269  A    between atoms: _692  and  _693
REMARK  270  A    between atoms: _695  and  _697
REMARK  271  A    between atoms: _697  and  _698
REMARK  272  A    between atoms: _697  and  _700
REMARK  273  A    between atoms: _700  and  _701
REMARK  274  A    between atoms: _703  and  _705
REMARK  275  A    between atoms: _705  and  _706
REMARK  276  A    between atoms: _705  and  _708
REMARK  277  A    between atoms: _708  and  _709
REMARK                            x       y       z     vdW  Elec       q    Type
REMARK                         _______ _______ _______ _____ _____    ______ ____
ROOT
ATOM      1  O   HOH     1      11.282  -0.827  29.899  0.00  0.00    +0.000 OA
ENDROOT
TORSDOF 0
REMARK  Name = ../refined-set-2016/4qll/4qll_pocket.pdb
REMARK  277 active torsions:
REMARK  status: ('A' for Active; 'I' for Inactive)
REMARK    1  A    between atoms: _1  and  _3
REMARK    2  A    between atoms: _3  and  _4
REMARK    3  A    between atoms: _3  and  _6
REMARK    4  A    between atoms: _9  and  _11
REMARK    5  A    between atoms: _11  and  _12
REMARK    6  A    between atoms: _11  and  _14
REMARK    7  A    between atoms: _14  and  _15
REMARK    8  A    between atoms: _18  and  _20
REMARK    9  A    between atoms: _20  and  _21
REMARK   10  A    between atoms: _20  and  _23
REMARK   11  A    between atoms: _23  and  _24
REMARK   12  A    between atoms: _26  and  _28
REMARK   13  A    between atoms: _28  and  _29
REMARK   14  A    between atoms: _28  and  _31
REMARK   15  A    between atoms: _31  and  _32
REMARK   16  A    between atoms: _32  and  _33
REMARK   17  A    between atoms: _38  and  _40
REMARK   18  A    between atoms: _40  and  _41
REMARK   19  A    between atoms: _40  and  _43
REMARK   20  A    between atoms: _43  and  _44
REMARK   21  A    between atoms: _44  and  _45
REMARK   22  A    between atoms: _45  and  _46
REMARK   23  A    between atoms: _55  and  _57
REMARK   24  A    between atoms: _57  and  _58
REMARK   25  A    between atoms: _57  and  _60
REMARK   26  A    between atoms: _60  and  _61
REMARK   27  A    between atoms: _66  and  _68
REMARK   28  A    between atoms: _68  and  _69
REMARK   29  A    between atoms: _68  and  _71
REMARK   30  A    between atoms: _71  and  _72
REMARK   31  A    between atoms: _77  and  _78
REMARK   32  A    between atoms: _80  and  _82
REMARK   33  A    between atoms: _82  and  _83
REMARK   34  A    between atoms: _82  and  _85
REMARK   35  A    between atoms: _85  and  _86
REMARK   36  A    between atoms: _91  and  _93
REMARK   37  A    between atoms: _93  and  _94
REMARK   38  A    between atoms: _93  and  _96
REMARK   39  A    between atoms: _96  and  _97
REMARK   40  A    between atoms: _97  and  _98
REMARK   41  A    between atoms: _103  and  _105
REMARK   42  A    between atoms: _105  and  _106
REMARK   43  A    between atoms: _105  and  _108
REMARK   44  A    between atoms: _108  and  _109
REMARK   45  A    between atoms: _109  and  _110
REMARK   46  A    between atoms: _110  and  _111
REMARK   47  A    between atoms: _120  and  _122
REMARK   48  A    between atoms: _122  and  _123
REMARK   49  A    between atoms: _122  and  _125
REMARK   50  A    between atoms: _125  and  _126
REMARK   51  A    between atoms: _129  and  _131
REMARK   52  A    between atoms: _131  and  _132
REMARK   53  A    between atoms: _131  and  _134
REMARK   54  A    between atoms: _134  and  _135
REMARK   55  A    between atoms: _138  and  _140
REMARK   56  A    between atoms: _140  and  _141
REMARK   57  A    between atoms: _140  and  _143
REMARK   58  A    between atoms: _143  and  _144
REMARK   59  A    between atoms: _147  and  _149
REMARK   60  A    between atoms: _149  and  _150
REMARK   61  A    between atoms: _149  and  _152
REMARK   62  A    between atoms: _152  and  _153
REMARK   63  A    between atoms: _156  and  _158
REMARK   64  A    between atoms: _158  and  _159
REMARK   65  A    between atoms: _162  and  _164
REMARK   66  A    between atoms: _164  and  _165
REMARK   67  A    between atoms: _164  and  _167
REMARK   68  A    between atoms: _167  and  _168
REMARK   69  A    between atoms: _171  and  _173
REMARK   70  A    between atoms: _173  and  _174
REMARK   71  A    between atoms: _173  and  _176
REMARK   72  A    between atoms: _176  and  _177
REMARK   73  A    between atoms: _182  and  _184
REMARK   74  A    between atoms: _184  and  _185
REMARK   75  A    between atoms: _184  and  _187
REMARK   76  A    between atoms: _190  and  _192
REMARK   77  A    between atoms: _192  and  _193
REMARK   78  A    between atoms: _192  and  _195
REMARK   79  A    between atoms: _195  and  _196
REMARK   80  A    between atoms: _199  and  _201
REMARK   81  A    between atoms: _201  and  _202
REMARK   82  A    between atoms: _201  and  _204
REMARK   83  A    between atoms: _204  and  _205
REMARK   84  A    between atoms: _208  and  _210
REMARK   85  A    between atoms: _210  and  _211
REMARK   86  A    between atoms: _210  and  _213
REMARK   87  A    between atoms: _213  and  _214
REMARK   88  A    between atoms: _220  and  _222
REMARK   89  A    between atoms: _222  and  _223
REMARK   90  A    between atoms: _222  and  _225
REMARK   91  A    between atoms: _225  and  _226
REMARK   92  A    between atoms: _231  and  _233
REMARK   93  A    between atoms: _233  and  _234
REMARK   94  A    between atoms: _233  and  _236
REMARK   95  A    between atoms: _236  and  _237
REMARK   96  A    between atoms: _247  and  _249
REMARK   97  A    between atoms: _249  and  _250
REMARK   98  A    between atoms: _249  and  _252
REMARK   99  A    between atoms: _252  and  _253
REMARK  100  A    between atoms: _258  and  _259
REMARK  101  A    between atoms: _261  and  _263
REMARK  102  A    between atoms: _263  and  _264
REMARK  103  A    between atoms: _267  and  _269
REMARK  104  A    between atoms: _269  and  _270
REMARK  105  A    between atoms: _269  and  _272
REMARK  106  A    between atoms: _272  and  _273
REMARK  107  A    between atoms: _279  and  _281
REMARK  108  A    between atoms: _281  and  _282
REMARK  109  A    between atoms: _281  and  _284
REMARK  110  A    between atoms: _284  and  _285
REMARK  111  A    between atoms: _290  and  _292
REMARK  112  A    between atoms: _292  and  _293
REMARK  113  A    between atoms: _292  and  _295
REMARK  114  A    between atoms: _295  and  _296
REMARK  115  A    between atoms: _301  and  _303
REMARK  116  A    between atoms: _303  and  _304
REMARK  117  A    between atoms: _303  and  _306
REMARK  118  A    between atoms: _306  and  _307
REMARK  119  A    between atoms: _307  and  _308
REMARK  120  A    between atoms: _313  and  _315
REMARK  121  A    between atoms: _315  and  _316
REMARK  122  A    between atoms: _315  and  _318
REMARK  123  A    between atoms: _318  and  _319
REMARK  124  A    between atoms: _324  and  _325
REMARK  125  A    between atoms: _327  and  _329
REMARK  126  A    between atoms: _329  and  _330
REMARK  127  A    between atoms: _329  and  _332
REMARK  128  A    between atoms: _332  and  _333
REMARK  129  A    between atoms: _336  and  _338
REMARK  130  A    between atoms: _338  and  _339
REMARK  131  A    between atoms: _342  and  _344
REMARK  132  A    between atoms: _344  and  _345
REMARK  133  A    between atoms: _344  and  _347
REMARK  134  A    between atoms: _347  and  _348
REMARK  135  A    between atoms: _350  and  _352
REMARK  136  A    between atoms: _352  and  _353
REMARK  137  A    between atoms: _352  and  _355
REMARK  138  A    between atoms: _355  and  _356
REMARK  139  A    between atoms: _361  and  _362
REMARK  140  A    between atoms: _364  and  _366
REMARK  141  A    between atoms: _366  and  _367
REMARK  142  A    between atoms: _366  and  _369
REMARK  143  A    between atoms: _369  and  _370
REMARK  144  A    between atoms: _370  and  _371
REMARK  145  A    between atoms: _373  and  _375
REMARK  146  A    between atoms: _375  and  _376
REMARK  147  A    between atoms: _375  and  _378
REMARK  148  A    between atoms: _378  and  _379
REMARK  149  A    between atoms: _379  and  _380
REMARK  150  A    between atoms: _380  and  _381
REMARK  151  A    between atoms: _381  and  _382
REMARK  152  A    between atoms: _386  and  _388
REMARK  153  A    between atoms: _388  and  _389
REMARK  154  A    between atoms: _388  and  _391
REMARK  155  A    between atoms: _391  and  _392
REMARK  156  A    between atoms: _397  and  _398
REMARK  157  A    between atoms: _400  and  _402
REMARK  158  A    between atoms: _402  and  _403
REMARK  159  A    between atoms: _402  and  _405
REMARK  160  A    between atoms: _405  and  _406
REMARK  161  A    between atoms: _408  and  _410
REMARK  162  A    between atoms: _410  and  _411
REMARK  163  A    between atoms: _414  and  _416
REMARK  164  A    between atoms: _416  and  _417
REMARK  165  A    between atoms: _416  and  _419
REMARK  166  A    between atoms: _419  and  _420
REMARK  167  A    between atoms: _423  and  _425
REMARK  168  A    between atoms: _425  and  _426
REMARK  169  A    between atoms: _425  and  _428
REMARK  170  A    between atoms: _428  and  _429
REMARK  171  A    between atoms: _439  and  _441
REMARK  172  A    between atoms: _441  and  _442
REMARK  173  A    between atoms: _441  and  _444
REMARK  174  A    between atoms: _444  and  _445
REMARK  175  A    between atoms: _445  and  _446
REMARK  176  A    between atoms: _451  and  _453
REMARK  177  A    between atoms: _453  and  _454
REMARK  178  A    between atoms: _453  and  _456
REMARK  179  A    between atoms: _459  and  _461
REMARK  180  A    between atoms: _461  and  _462
REMARK  181  A    between atoms: _461  and  _464
REMARK  182  A    between atoms: _464  and  _465
REMARK  183  A    between atoms: _468  and  _470
REMARK  184  A    between atoms: _470  and  _471
REMARK  185  A    between atoms: _474  and  _476
REMARK  186  A    between atoms: _476  and  _477
REMARK  187  A    between atoms: _476  and  _479
REMARK  188  A    between atoms: _482  and  _484
REMARK  189  A    between atoms: _484  and  _485
REMARK  190  A    between atoms: _484  and  _487
REMARK  191  A    between atoms: _487  and  _488
REMARK  192  A    between atoms: _494  and  _496
REMARK  193  A    between atoms: _496  and  _497
REMARK  194  A    between atoms: _496  and  _499
REMARK  195  A    between atoms: _499  and  _500
REMARK  196  A    between atoms: _502  and  _504
REMARK  197  A    between atoms: _504  and  _505
REMARK  198  A    between atoms: _504  and  _507
REMARK  199  A    between atoms: _507  and  _508
REMARK  200  A    between atoms: _513  and  _515
REMARK  201  A    between atoms: _515  and  _516
REMARK  202  A    between atoms: _515  and  _518
REMARK  203  A    between atoms: _518  and  _519
REMARK  204  A    between atoms: _529  and  _531
REMARK  205  A    between atoms: _531  and  _532
REMARK  206  A    between atoms: _531  and  _534
REMARK  207  A    between atoms: _534  and  _535
REMARK  208  A    between atoms: _538  and  _540
REMARK  209  A    between atoms: _540  and  _541
REMARK  210  A    between atoms: _540  and  _543
REMARK  211  A    between atoms: _543  and  _544
REMARK  212  A    between atoms: _549  and  _550
REMARK  213  A    between atoms: _552  and  _554
REMARK  214  A    between atoms: _554  and  _555
REMARK  215  A    between atoms: _554  and  _557
REMARK  216  A    between atoms: _557  and  _558
REMARK  217  A    between atoms: _561  and  _563
REMARK  218  A    between atoms: _563  and  _564
REMARK  219  A    between atoms: _563  and  _566
REMARK  220  A    between atoms: _566  and  _567
REMARK  221  A    between atoms: _567  and  _568
REMARK  222  A    between atoms: _571  and  _573
REMARK  223  A    between atoms: _573  and  _574
REMARK  224  A    between atoms: _573  and  _576
REMARK  225  A    between atoms: _576  and  _577
REMARK  226  A    between atoms: _582  and  _584
REMARK  227  A    between atoms: _584  and  _585
REMARK  228  A    between atoms: _587  and  _589
REMARK  229  A    between atoms: _589  and  _590
REMARK  230  A    between atoms: _589  and  _592
REMARK  231  A    between atoms: _592  and  _593
REMARK  232  A    between atoms: _593  and  _594
REMARK  233  A    between atoms: _596  and  _598
REMARK  234  A    between atoms: _598  and  _599
REMARK  235  A    between atoms: _598  and  _601
REMARK  236  A    between atoms: _601  and  _602
REMARK  237  A    between atoms: _605  and  _607
REMARK  238  A    between atoms: _607  and  _608
REMARK  239  A    between atoms: _607  and  _610
REMARK  240  A    between atoms: _610  and  _611
REMARK  241  A    between atoms: _621  and  _623
REMARK  242  A    between atoms: _623  and  _624
REMARK  243  A    between atoms: _623  and  _626
REMARK  244  A    between atoms: _626  and  _627
REMARK  245  A    between atoms: _629  and  _631
REMARK  246  A    between atoms: _631  and  _632
REMARK  247  A    between atoms: _631  and  _634
REMARK  248  A    between atoms: _634  and  _635
REMARK  249  A    between atoms: _640  and  _642
REMARK  250  A    between atoms: _642  and  _643
REMARK  251  A    between atoms: _642  and  _645
REMARK  252  A    between atoms: _645  and  _646
REMARK  253  A    between atoms: _652  and  _654
REMARK  254  A    between atoms: _654  and  _655
REMARK  255  A    between atoms: _654  and  _657
REMARK  256  A    between atoms: _657  and  _658
REMARK  257  A    between atoms: _658  and  _659
REMARK  258  A    between atoms: _662  and  _664
REMARK  259  A    between atoms: _664  and  _665
REMARK  260  A    between atoms: _664  and  _667
REMARK  261  A    between atoms: _667  and  _668
REMARK  262  A    between atoms: _678  and  _680
REMARK  263  A    between atoms: _680  and  _681
REMARK  264  A    between atoms: _680  and  _683
REMARK  265  A    between atoms: _683  and  _684
REMARK  266  A    between atoms: _687  and  _689
REMARK  267  A    between atoms: _689  and  _690
REMARK  268  A    between atoms: _689  and  _692
REMARK  269  A    between atoms: _692  and  _693
REMARK  270  A    between atoms: _695  and  _697
REMARK  271  A    between atoms: _697  and  _698
REMARK  272  A    between atoms: _697  and  _700
REMARK  273  A    between atoms: _700  and  _701
REMARK  274  A    between atoms: _703  and  _705
REMARK  275  A    between atoms: _705  and  _706
REMARK  276  A    between atoms: _705  and  _708
REMARK  277  A    between atoms: _708  and  _709
REMARK                            x       y       z     vdW  Elec       q    Type
REMARK                         _______ _______ _______ _____ _____    ______ ____
ROOT
ATOM      1  O   HOH     1      -2.406  -1.595  36.991  0.00  0.00    +0.000 OA
ENDROOT
TORSDOF 0
REMARK  Name = ../refined-set-2016/4qll/4qll_pocket.pdb
REMARK  277 active torsions:
REMARK  status: ('A' for Active; 'I' for Inactive)
REMARK    1  A    between atoms: _1  and  _3
REMARK    2  A    between atoms: _3  and  _4
REMARK    3  A    between atoms: _3  and  _6
REMARK    4  A    between atoms: _9  and  _11
REMARK    5  A    between atoms: _11  and  _12
REMARK    6  A    between atoms: _11  and  _14
REMARK    7  A    between atoms: _14  and  _15
REMARK    8  A    between atoms: _18  and  _20
REMARK    9  A    between atoms: _20  and  _21
REMARK   10  A    between atoms: _20  and  _23
REMARK   11  A    between atoms: _23  and  _24
REMARK   12  A    between atoms: _26  and  _28
REMARK   13  A    between atoms: _28  and  _29
REMARK   14  A    between atoms: _28  and  _31
REMARK   15  A    between atoms: _31  and  _32
REMARK   16  A    between atoms: _32  and  _33
REMARK   17  A    between atoms: _38  and  _40
REMARK   18  A    between atoms: _40  and  _41
REMARK   19  A    between atoms: _40  and  _43
REMARK   20  A    between atoms: _43  and  _44
REMARK   21  A    between atoms: _44  and  _45
REMARK   22  A    between atoms: _45  and  _46
REMARK   23  A    between atoms: _55  and  _57
REMARK   24  A    between atoms: _57  and  _58
REMARK   25  A    between atoms: _57  and  _60
REMARK   26  A    between atoms: _60  and  _61
REMARK   27  A    between atoms: _66  and  _68
REMARK   28  A    between atoms: _68  and  _69
REMARK   29  A    between atoms: _68  and  _71
REMARK   30  A    between atoms: _71  and  _72
REMARK   31  A    between atoms: _77  and  _78
REMARK   32  A    between atoms: _80  and  _82
REMARK   33  A    between atoms: _82  and  _83
REMARK   34  A    between atoms: _82  and  _85
REMARK   35  A    between atoms: _85  and  _86
REMARK   36  A    between atoms: _91  and  _93
REMARK   37  A    between atoms: _93  and  _94
REMARK   38  A    between atoms: _93  and  _96
REMARK   39  A    between atoms: _96  and  _97
REMARK   40  A    between atoms: _97  and  _98
REMARK   41  A    between atoms: _103  and  _105
REMARK   42  A    between atoms: _105  and  _106
REMARK   43  A    between atoms: _105  and  _108
REMARK   44  A    between atoms: _108  and  _109
REMARK   45  A    between atoms: _109  and  _110
REMARK   46  A    between atoms: _110  and  _111
REMARK   47  A    between atoms: _120  and  _122
REMARK   48  A    between atoms: _122  and  _123
REMARK   49  A    between atoms: _122  and  _125
REMARK   50  A    between atoms: _125  and  _126
REMARK   51  A    between atoms: _129  and  _131
REMARK   52  A    between atoms: _131  and  _132
REMARK   53  A    between atoms: _131  and  _134
REMARK   54  A    between atoms: _134  and  _135
REMARK   55  A    between atoms: _138  and  _140
REMARK   56  A    between atoms: _140  and  _141
REMARK   57  A    between atoms: _140  and  _143
REMARK   58  A    between atoms: _143  and  _144
REMARK   59  A    between atoms: _147  and  _149
REMARK   60  A    between atoms: _149  and  _150
REMARK   61  A    between atoms: _149  and  _152
REMARK   62  A    between atoms: _152  and  _153
REMARK   63  A    between atoms: _156  and  _158
REMARK   64  A    between atoms: _158  and  _159
REMARK   65  A    between atoms: _162  and  _164
REMARK   66  A    between atoms: _164  and  _165
REMARK   67  A    between atoms: _164  and  _167
REMARK   68  A    between atoms: _167  and  _168
REMARK   69  A    between atoms: _171  and  _173
REMARK   70  A    between atoms: _173  and  _174
REMARK   71  A    between atoms: _173  and  _176
REMARK   72  A    between atoms: _176  and  _177
REMARK   73  A    between atoms: _182  and  _184
REMARK   74  A    between atoms: _184  and  _185
REMARK   75  A    between atoms: _184  and  _187
REMARK   76  A    between atoms: _190  and  _192
REMARK   77  A    between atoms: _192  and  _193
REMARK   78  A    between atoms: _192  and  _195
REMARK   79  A    between atoms: _195  and  _196
REMARK   80  A    between atoms: _199  and  _201
REMARK   81  A    between atoms: _201  and  _202
REMARK   82  A    between atoms: _201  and  _204
REMARK   83  A    between atoms: _204  and  _205
REMARK   84  A    between atoms: _208  and  _210
REMARK   85  A    between atoms: _210  and  _211
REMARK   86  A    between atoms: _210  and  _213
REMARK   87  A    between atoms: _213  and  _214
REMARK   88  A    between atoms: _220  and  _222
REMARK   89  A    between atoms: _222  and  _223
REMARK   90  A    between atoms: _222  and  _225
REMARK   91  A    between atoms: _225  and  _226
REMARK   92  A    between atoms: _231  and  _233
REMARK   93  A    between atoms: _233  and  _234
REMARK   94  A    between atoms: _233  and  _236
REMARK   95  A    between atoms: _236  and  _237
REMARK   96  A    between atoms: _247  and  _249
REMARK   97  A    between atoms: _249  and  _250
REMARK   98  A    between atoms: _249  and  _252
REMARK   99  A    between atoms: _252  and  _253
REMARK  100  A    between atoms: _258  and  _259
REMARK  101  A    between atoms: _261  and  _263
REMARK  102  A    between atoms: _263  and  _264
REMARK  103  A    between atoms: _267  and  _269
REMARK  104  A    between atoms: _269  and  _270
REMARK  105  A    between atoms: _269  and  _272
REMARK  106  A    between atoms: _272  and  _273
REMARK  107  A    between atoms: _279  and  _281
REMARK  108  A    between atoms: _281  and  _282
REMARK  109  A    between atoms: _281  and  _284
REMARK  110  A    between atoms: _284  and  _285
REMARK  111  A    between atoms: _290  and  _292
REMARK  112  A    between atoms: _292  and  _293
REMARK  113  A    between atoms: _292  and  _295
REMARK  114  A    between atoms: _295  and  _296
REMARK  115  A    between atoms: _301  and  _303
REMARK  116  A    between atoms: _303  and  _304
REMARK  117  A    between atoms: _303  and  _306
REMARK  118  A    between atoms: _306  and  _307
REMARK  119  A    between atoms: _307  and  _308
REMARK  120  A    between atoms: _313  and  _315
REMARK  121  A    between atoms: _315  and  _316
REMARK  122  A    between atoms: _315  and  _318
REMARK  123  A    between atoms: _318  and  _319
REMARK  124  A    between atoms: _324  and  _325
REMARK  125  A    between atoms: _327  and  _329
REMARK  126  A    between atoms: _329  and  _330
REMARK  127  A    between atoms: _329  and  _332
REMARK  128  A    between atoms: _332  and  _333
REMARK  129  A    between atoms: _336  and  _338
REMARK  130  A    between atoms: _338  and  _339
REMARK  131  A    between atoms: _342  and  _344
REMARK  132  A    between atoms: _344  and  _345
REMARK  133  A    between atoms: _344  and  _347
REMARK  134  A    between atoms: _347  and  _348
REMARK  135  A    between atoms: _350  and  _352
REMARK  136  A    between atoms: _352  and  _353
REMARK  137  A    between atoms: _352  and  _355
REMARK  138  A    between atoms: _355  and  _356
REMARK  139  A    between atoms: _361  and  _362
REMARK  140  A    between atoms: _364  and  _366
REMARK  141  A    between atoms: _366  and  _367
REMARK  142  A    between atoms: _366  and  _369
REMARK  143  A    between atoms: _369  and  _370
REMARK  144  A    between atoms: _370  and  _371
REMARK  145  A    between atoms: _373  and  _375
REMARK  146  A    between atoms: _375  and  _376
REMARK  147  A    between atoms: _375  and  _378
REMARK  148  A    between atoms: _378  and  _379
REMARK  149  A    between atoms: _379  and  _380
REMARK  150  A    between atoms: _380  and  _381
REMARK  151  A    between atoms: _381  and  _382
REMARK  152  A    between atoms: _386  and  _388
REMARK  153  A    between atoms: _388  and  _389
REMARK  154  A    between atoms: _388  and  _391
REMARK  155  A    between atoms: _391  and  _392
REMARK  156  A    between atoms: _397  and  _398
REMARK  157  A    between atoms: _400  and  _402
REMARK  158  A    between atoms: _402  and  _403
REMARK  159  A    between atoms: _402  and  _405
REMARK  160  A    between atoms: _405  and  _406
REMARK  161  A    between atoms: _408  and  _410
REMARK  162  A    between atoms: _410  and  _411
REMARK  163  A    between atoms: _414  and  _416
REMARK  164  A    between atoms: _416  and  _417
REMARK  165  A    between atoms: _416  and  _419
REMARK  166  A    between atoms: _419  and  _420
REMARK  167  A    between atoms: _423  and  _425
REMARK  168  A    between atoms: _425  and  _426
REMARK  169  A    between atoms: _425  and  _428
REMARK  170  A    between atoms: _428  and  _429
REMARK  171  A    between atoms: _439  and  _441
REMARK  172  A    between atoms: _441  and  _442
REMARK  173  A    between atoms: _441  and  _444
REMARK  174  A    between atoms: _444  and  _445
REMARK  175  A    between atoms: _445  and  _446
REMARK  176  A    between atoms: _451  and  _453
REMARK  177  A    between atoms: _453  and  _454
REMARK  178  A    between atoms: _453  and  _456
REMARK  179  A    between atoms: _459  and  _461
REMARK  180  A    between atoms: _461  and  _462
REMARK  181  A    between atoms: _461  and  _464
REMARK  182  A    between atoms: _464  and  _465
REMARK  183  A    between atoms: _468  and  _470
REMARK  184  A    between atoms: _470  and  _471
REMARK  185  A    between atoms: _474  and  _476
REMARK  186  A    between atoms: _476  and  _477
REMARK  187  A    between atoms: _476  and  _479
REMARK  188  A    between atoms: _482  and  _484
REMARK  189  A    between atoms: _484  and  _485
REMARK  190  A    between atoms: _484  and  _487
REMARK  191  A    between atoms: _487  and  _488
REMARK  192  A    between atoms: _494  and  _496
REMARK  193  A    between atoms: _496  and  _497
REMARK  194  A    between atoms: _496  and  _499
REMARK  195  A    between atoms: _499  and  _500
REMARK  196  A    between atoms: _502  and  _504
REMARK  197  A    between atoms: _504  and  _505
REMARK  198  A    between atoms: _504  and  _507
REMARK  199  A    between atoms: _507  and  _508
REMARK  200  A    between atoms: _513  and  _515
REMARK  201  A    between atoms: _515  and  _516
REMARK  202  A    between atoms: _515  and  _518
REMARK  203  A    between atoms: _518  and  _519
REMARK  204  A    between atoms: _529  and  _531
REMARK  205  A    between atoms: _531  and  _532
REMARK  206  A    between atoms: _531  and  _534
REMARK  207  A    between atoms: _534  and  _535
REMARK  208  A    between atoms: _538  and  _540
REMARK  209  A    between atoms: _540  and  _541
REMARK  210  A    between atoms: _540  and  _543
REMARK  211  A    between atoms: _543  and  _544
REMARK  212  A    between atoms: _549  and  _550
REMARK  213  A    between atoms: _552  and  _554
REMARK  214  A    between atoms: _554  and  _555
REMARK  215  A    between atoms: _554  and  _557
REMARK  216  A    between atoms: _557  and  _558
REMARK  217  A    between atoms: _561  and  _563
REMARK  218  A    between atoms: _563  and  _564
REMARK  219  A    between atoms: _563  and  _566
REMARK  220  A    between atoms: _566  and  _567
REMARK  221  A    between atoms: _567  and  _568
REMARK  222  A    between atoms: _571  and  _573
REMARK  223  A    between atoms: _573  and  _574
REMARK  224  A    between atoms: _573  and  _576
REMARK  225  A    between atoms: _576  and  _577
REMARK  226  A    between atoms: _582  and  _584
REMARK  227  A    between atoms: _584  and  _585
REMARK  228  A    between atoms: _587  and  _589
REMARK  229  A    between atoms: _589  and  _590
REMARK  230  A    between atoms: _589  and  _592
REMARK  231  A    between atoms: _592  and  _593
REMARK  232  A    between atoms: _593  and  _594
REMARK  233  A    between atoms: _596  and  _598
REMARK  234  A    between atoms: _598  and  _599
REMARK  235  A    between atoms: _598  and  _601
REMARK  236  A    between atoms: _601  and  _602
REMARK  237  A    between atoms: _605  and  _607
REMARK  238  A    between atoms: _607  and  _608
REMARK  239  A    between atoms: _607  and  _610
REMARK  240  A    between atoms: _610  and  _611
REMARK  241  A    between atoms: _621  and  _623
REMARK  242  A    between atoms: _623  and  _624
REMARK  243  A    between atoms: _623  and  _626
REMARK  244  A    between atoms: _626  and  _627
REMARK  245  A    between atoms: _629  and  _631
REMARK  246  A    between atoms: _631  and  _632
REMARK  247  A    between atoms: _631  and  _634
REMARK  248  A    between atoms: _634  and  _635
REMARK  249  A    between atoms: _640  and  _642
REMARK  250  A    between atoms: _642  and  _643
REMARK  251  A    between atoms: _642  and  _645
REMARK  252  A    between atoms: _645  and  _646
REMARK  253  A    between atoms: _652  and  _654
REMARK  254  A    between atoms: _654  and  _655
REMARK  255  A    between atoms: _654  and  _657
REMARK  256  A    between atoms: _657  and  _658
REMARK  257  A    between atoms: _658  and  _659
REMARK  258  A    between atoms: _662  and  _664
REMARK  259  A    between atoms: _664  and  _665
REMARK  260  A    between atoms: _664  and  _667
REMARK  261  A    between atoms: _667  and  _668
REMARK  262  A    between atoms: _678  and  _680
REMARK  263  A    between atoms: _680  and  _681
REMARK  264  A    between atoms: _680  and  _683
REMARK  265  A    between atoms: _683  and  _684
REMARK  266  A    between atoms: _687  and  _689
REMARK  267  A    between atoms: _689  and  _690
REMARK  268  A    between atoms: _689  and  _692
REMARK  269  A    between atoms: _692  and  _693
REMARK  270  A    between atoms: _695  and  _697
REMARK  271  A    between atoms: _697  and  _698
REMARK  272  A    between atoms: _697  and  _700
REMARK  273  A    between atoms: _700  and  _701
REMARK  274  A    between atoms: _703  and  _705
REMARK  275  A    between atoms: _705  and  _706
REMARK  276  A    between atoms: _705  and  _708
REMARK  277  A    between atoms: _708  and  _709
REMARK                            x       y       z     vdW  Elec       q    Type
REMARK                         _______ _______ _______ _____ _____    ______ ____
ROOT
ATOM      1  O   HOH     1       1.094   4.719  47.185  0.00  0.00    +0.000 OA
ENDROOT
TORSDOF 0
REMARK  Name = ../refined-set-2016/4qll/4qll_pocket.pdb
REMARK  277 active torsions:
REMARK  status: ('A' for Active; 'I' for Inactive)
REMARK    1  A    between atoms: _1  and  _3
REMARK    2  A    between atoms: _3  and  _4
REMARK    3  A    between atoms: _3  and  _6
REMARK    4  A    between atoms: _9  and  _11
REMARK    5  A    between atoms: _11  and  _12
REMARK    6  A    between atoms: _11  and  _14
REMARK    7  A    between atoms: _14  and  _15
REMARK    8  A    between atoms: _18  and  _20
REMARK    9  A    between atoms: _20  and  _21
REMARK   10  A    between atoms: _20  and  _23
REMARK   11  A    between atoms: _23  and  _24
REMARK   12  A    between atoms: _26  and  _28
REMARK   13  A    between atoms: _28  and  _29
REMARK   14  A    between atoms: _28  and  _31
REMARK   15  A    between atoms: _31  and  _32
REMARK   16  A    between atoms: _32  and  _33
REMARK   17  A    between atoms: _38  and  _40
REMARK   18  A    between atoms: _40  and  _41
REMARK   19  A    between atoms: _40  and  _43
REMARK   20  A    between atoms: _43  and  _44
REMARK   21  A    between atoms: _44  and  _45
REMARK   22  A    between atoms: _45  and  _46
REMARK   23  A    between atoms: _55  and  _57
REMARK   24  A    between atoms: _57  and  _58
REMARK   25  A    between atoms: _57  and  _60
REMARK   26  A    between atoms: _60  and  _61
REMARK   27  A    between atoms: _66  and  _68
REMARK   28  A    between atoms: _68  and  _69
REMARK   29  A    between atoms: _68  and  _71
REMARK   30  A    between atoms: _71  and  _72
REMARK   31  A    between atoms: _77  and  _78
REMARK   32  A    between atoms: _80  and  _82
REMARK   33  A    between atoms: _82  and  _83
REMARK   34  A    between atoms: _82  and  _85
REMARK   35  A    between atoms: _85  and  _86
REMARK   36  A    between atoms: _91  and  _93
REMARK   37  A    between atoms: _93  and  _94
REMARK   38  A    between atoms: _93  and  _96
REMARK   39  A    between atoms: _96  and  _97
REMARK   40  A    between atoms: _97  and  _98
REMARK   41  A    between atoms: _103  and  _105
REMARK   42  A    between atoms: _105  and  _106
REMARK   43  A    between atoms: _105  and  _108
REMARK   44  A    between atoms: _108  and  _109
REMARK   45  A    between atoms: _109  and  _110
REMARK   46  A    between atoms: _110  and  _111
REMARK   47  A    between atoms: _120  and  _122
REMARK   48  A    between atoms: _122  and  _123
REMARK   49  A    between atoms: _122  and  _125
REMARK   50  A    between atoms: _125  and  _126
REMARK   51  A    between atoms: _129  and  _131
REMARK   52  A    between atoms: _131  and  _132
REMARK   53  A    between atoms: _131  and  _134
REMARK   54  A    between atoms: _134  and  _135
REMARK   55  A    between atoms: _138  and  _140
REMARK   56  A    between atoms: _140  and  _141
REMARK   57  A    between atoms: _140  and  _143
REMARK   58  A    between atoms: _143  and  _144
REMARK   59  A    between atoms: _147  and  _149
REMARK   60  A    between atoms: _149  and  _150
REMARK   61  A    between atoms: _149  and  _152
REMARK   62  A    between atoms: _152  and  _153
REMARK   63  A    between atoms: _156  and  _158
REMARK   64  A    between atoms: _158  and  _159
REMARK   65  A    between atoms: _162  and  _164
REMARK   66  A    between atoms: _164  and  _165
REMARK   67  A    between atoms: _164  and  _167
REMARK   68  A    between atoms: _167  and  _168
REMARK   69  A    between atoms: _171  and  _173
REMARK   70  A    between atoms: _173  and  _174
REMARK   71  A    between atoms: _173  and  _176
REMARK   72  A    between atoms: _176  and  _177
REMARK   73  A    between atoms: _182  and  _184
REMARK   74  A    between atoms: _184  and  _185
REMARK   75  A    between atoms: _184  and  _187
REMARK   76  A    between atoms: _190  and  _192
REMARK   77  A    between atoms: _192  and  _193
REMARK   78  A    between atoms: _192  and  _195
REMARK   79  A    between atoms: _195  and  _196
REMARK   80  A    between atoms: _199  and  _201
REMARK   81  A    between atoms: _201  and  _202
REMARK   82  A    between atoms: _201  and  _204
REMARK   83  A    between atoms: _204  and  _205
REMARK   84  A    between atoms: _208  and  _210
REMARK   85  A    between atoms: _210  and  _211
REMARK   86  A    between atoms: _210  and  _213
REMARK   87  A    between atoms: _213  and  _214
REMARK   88  A    between atoms: _220  and  _222
REMARK   89  A    between atoms: _222  and  _223
REMARK   90  A    between atoms: _222  and  _225
REMARK   91  A    between atoms: _225  and  _226
REMARK   92  A    between atoms: _231  and  _233
REMARK   93  A    between atoms: _233  and  _234
REMARK   94  A    between atoms: _233  and  _236
REMARK   95  A    between atoms: _236  and  _237
REMARK   96  A    between atoms: _247  and  _249
REMARK   97  A    between atoms: _249  and  _250
REMARK   98  A    between atoms: _249  and  _252
REMARK   99  A    between atoms: _252  and  _253
REMARK  100  A    between atoms: _258  and  _259
REMARK  101  A    between atoms: _261  and  _263
REMARK  102  A    between atoms: _263  and  _264
REMARK  103  A    between atoms: _267  and  _269
REMARK  104  A    between atoms: _269  and  _270
REMARK  105  A    between atoms: _269  and  _272
REMARK  106  A    between atoms: _272  and  _273
REMARK  107  A    between atoms: _279  and  _281
REMARK  108  A    between atoms: _281  and  _282
REMARK  109  A    between atoms: _281  and  _284
REMARK  110  A    between atoms: _284  and  _285
REMARK  111  A    between atoms: _290  and  _292
REMARK  112  A    between atoms: _292  and  _293
REMARK  113  A    between atoms: _292  and  _295
REMARK  114  A    between atoms: _295  and  _296
REMARK  115  A    between atoms: _301  and  _303
REMARK  116  A    between atoms: _303  and  _304
REMARK  117  A    between atoms: _303  and  _306
REMARK  118  A    between atoms: _306  and  _307
REMARK  119  A    between atoms: _307  and  _308
REMARK  120  A    between atoms: _313  and  _315
REMARK  121  A    between atoms: _315  and  _316
REMARK  122  A    between atoms: _315  and  _318
REMARK  123  A    between atoms: _318  and  _319
REMARK  124  A    between atoms: _324  and  _325
REMARK  125  A    between atoms: _327  and  _329
REMARK  126  A    between atoms: _329  and  _330
REMARK  127  A    between atoms: _329  and  _332
REMARK  128  A    between atoms: _332  and  _333
REMARK  129  A    between atoms: _336  and  _338
REMARK  130  A    between atoms: _338  and  _339
REMARK  131  A    between atoms: _342  and  _344
REMARK  132  A    between atoms: _344  and  _345
REMARK  133  A    between atoms: _344  and  _347
REMARK  134  A    between atoms: _347  and  _348
REMARK  135  A    between atoms: _350  and  _352
REMARK  136  A    between atoms: _352  and  _353
REMARK  137  A    between atoms: _352  and  _355
REMARK  138  A    between atoms: _355  and  _356
REMARK  139  A    between atoms: _361  and  _362
REMARK  140  A    between atoms: _364  and  _366
REMARK  141  A    between atoms: _366  and  _367
REMARK  142  A    between atoms: _366  and  _369
REMARK  143  A    between atoms: _369  and  _370
REMARK  144  A    between atoms: _370  and  _371
REMARK  145  A    between atoms: _373  and  _375
REMARK  146  A    between atoms: _375  and  _376
REMARK  147  A    between atoms: _375  and  _378
REMARK  148  A    between atoms: _378  and  _379
REMARK  149  A    between atoms: _379  and  _380
REMARK  150  A    between atoms: _380  and  _381
REMARK  151  A    between atoms: _381  and  _382
REMARK  152  A    between atoms: _386  and  _388
REMARK  153  A    between atoms: _388  and  _389
REMARK  154  A    between atoms: _388  and  _391
REMARK  155  A    between atoms: _391  and  _392
REMARK  156  A    between atoms: _397  and  _398
REMARK  157  A    between atoms: _400  and  _402
REMARK  158  A    between atoms: _402  and  _403
REMARK  159  A    between atoms: _402  and  _405
REMARK  160  A    between atoms: _405  and  _406
REMARK  161  A    between atoms: _408  and  _410
REMARK  162  A    between atoms: _410  and  _411
REMARK  163  A    between atoms: _414  and  _416
REMARK  164  A    between atoms: _416  and  _417
REMARK  165  A    between atoms: _416  and  _419
REMARK  166  A    between atoms: _419  and  _420
REMARK  167  A    between atoms: _423  and  _425
REMARK  168  A    between atoms: _425  and  _426
REMARK  169  A    between atoms: _425  and  _428
REMARK  170  A    between atoms: _428  and  _429
REMARK  171  A    between atoms: _439  and  _441
REMARK  172  A    between atoms: _441  and  _442
REMARK  173  A    between atoms: _441  and  _444
REMARK  174  A    between atoms: _444  and  _445
REMARK  175  A    between atoms: _445  and  _446
REMARK  176  A    between atoms: _451  and  _453
REMARK  177  A    between atoms: _453  and  _454
REMARK  178  A    between atoms: _453  and  _456
REMARK  179  A    between atoms: _459  and  _461
REMARK  180  A    between atoms: _461  and  _462
REMARK  181  A    between atoms: _461  and  _464
REMARK  182  A    between atoms: _464  and  _465
REMARK  183  A    between atoms: _468  and  _470
REMARK  184  A    between atoms: _470  and  _471
REMARK  185  A    between atoms: _474  and  _476
REMARK  186  A    between atoms: _476  and  _477
REMARK  187  A    between atoms: _476  and  _479
REMARK  188  A    between atoms: _482  and  _484
REMARK  189  A    between atoms: _484  and  _485
REMARK  190  A    between atoms: _484  and  _487
REMARK  191  A    between atoms: _487  and  _488
REMARK  192  A    between atoms: _494  and  _496
REMARK  193  A    between atoms: _496  and  _497
REMARK  194  A    between atoms: _496  and  _499
REMARK  195  A    between atoms: _499  and  _500
REMARK  196  A    between atoms: _502  and  _504
REMARK  197  A    between atoms: _504  and  _505
REMARK  198  A    between atoms: _504  and  _507
REMARK  199  A    between atoms: _507  and  _508
REMARK  200  A    between atoms: _513  and  _515
REMARK  201  A    between atoms: _515  and  _516
REMARK  202  A    between atoms: _515  and  _518
REMARK  203  A    between atoms: _518  and  _519
REMARK  204  A    between atoms: _529  and  _531
REMARK  205  A    between atoms: _531  and  _532
REMARK  206  A    between atoms: _531  and  _534
REMARK  207  A    between atoms: _534  and  _535
REMARK  208  A    between atoms: _538  and  _540
REMARK  209  A    between atoms: _540  and  _541
REMARK  210  A    between atoms: _540  and  _543
REMARK  211  A    between atoms: _543  and  _544
REMARK  212  A    between atoms: _549  and  _550
REMARK  213  A    between atoms: _552  and  _554
REMARK  214  A    between atoms: _554  and  _555
REMARK  215  A    between atoms: _554  and  _557
REMARK  216  A    between atoms: _557  and  _558
REMARK  217  A    between atoms: _561  and  _563
REMARK  218  A    between atoms: _563  and  _564
REMARK  219  A    between atoms: _563  and  _566
REMARK  220  A    between atoms: _566  and  _567
REMARK  221  A    between atoms: _567  and  _568
REMARK  222  A    between atoms: _571  and  _573
REMARK  223  A    between atoms: _573  and  _574
REMARK  224  A    between atoms: _573  and  _576
REMARK  225  A    between atoms: _576  and  _577
REMARK  226  A    between atoms: _582  and  _584
REMARK  227  A    between atoms: _584  and  _585
REMARK  228  A    between atoms: _587  and  _589
REMARK  229  A    between atoms: _589  and  _590
REMARK  230  A    between atoms: _589  and  _592
REMARK  231  A    between atoms: _592  and  _593
REMARK  232  A    between atoms: _593  and  _594
REMARK  233  A    between atoms: _596  and  _598
REMARK  234  A    between atoms: _598  and  _599
REMARK  235  A    between atoms: _598  and  _601
REMARK  236  A    between atoms: _601  and  _602
REMARK  237  A    between atoms: _605  and  _607
REMARK  238  A    between atoms: _607  and  _608
REMARK  239  A    between atoms: _607  and  _610
REMARK  240  A    between atoms: _610  and  _611
REMARK  241  A    between atoms: _621  and  _623
REMARK  242  A    between atoms: _623  and  _624
REMARK  243  A    between atoms: _623  and  _626
REMARK  244  A    between atoms: _626  and  _627
REMARK  245  A    between atoms: _629  and  _631
REMARK  246  A    between atoms: _631  and  _632
REMARK  247  A    between atoms: _631  and  _634
REMARK  248  A    between atoms: _634  and  _635
REMARK  249  A    between atoms: _640  and  _642
REMARK  250  A    between atoms: _642  and  _643
REMARK  251  A    between atoms: _642  and  _645
REMARK  252  A    between atoms: _645  and  _646
REMARK  253  A    between atoms: _652  and  _654
REMARK  254  A    between atoms: _654  and  _655
REMARK  255  A    between atoms: _654  and  _657
REMARK  256  A    between atoms: _657  and  _658
REMARK  257  A    between atoms: _658  and  _659
REMARK  258  A    between atoms: _662  and  _664
REMARK  259  A    between atoms: _664  and  _665
REMARK  260  A    between atoms: _664  and  _667
REMARK  261  A    between atoms: _667  and  _668
REMARK  262  A    between atoms: _678  and  _680
REMARK  263  A    between atoms: _680  and  _681
REMARK  264  A    between atoms: _680  and  _683
REMARK  265  A    between atoms: _683  and  _684
REMARK  266  A    between atoms: _687  and  _689
REMARK  267  A    between atoms: _689  and  _690
REMARK  268  A    between atoms: _689  and  _692
REMARK  269  A    between atoms: _692  and  _693
REMARK  270  A    between atoms: _695  and  _697
REMARK  271  A    between atoms: _697  and  _698
REMARK  272  A    between atoms: _697  and  _700
REMARK  273  A    between atoms: _700  and  _701
REMARK  274  A    between atoms: _703  and  _705
REMARK  275  A    between atoms: _705  and  _706
REMARK  276  A    between atoms: _705  and  _708
REMARK  277  A    between atoms: _708  and  _709
REMARK                            x       y       z     vdW  Elec       q    Type
REMARK                         _______ _______ _______ _____ _____    ______ ____
ROOT
ATOM      1  O   HOH     1       1.125  -3.977  36.761  0.00  0.00    +0.000 OA
ENDROOT
TORSDOF 0
REMARK  Name = ../refined-set-2016/4qll/4qll_pocket.pdb
REMARK  277 active torsions:
REMARK  status: ('A' for Active; 'I' for Inactive)
REMARK    1  A    between atoms: _1  and  _3
REMARK    2  A    between atoms: _3  and  _4
REMARK    3  A    between atoms: _3  and  _6
REMARK    4  A    between atoms: _9  and  _11
REMARK    5  A    between atoms: _11  and  _12
REMARK    6  A    between atoms: _11  and  _14
REMARK    7  A    between atoms: _14  and  _15
REMARK    8  A    between atoms: _18  and  _20
REMARK    9  A    between atoms: _20  and  _21
REMARK   10  A    between atoms: _20  and  _23
REMARK   11  A    between atoms: _23  and  _24
REMARK   12  A    between atoms: _26  and  _28
REMARK   13  A    between atoms: _28  and  _29
REMARK   14  A    between atoms: _28  and  _31
REMARK   15  A    between atoms: _31  and  _32
REMARK   16  A    between atoms: _32  and  _33
REMARK   17  A    between atoms: _38  and  _40
REMARK   18  A    between atoms: _40  and  _41
REMARK   19  A    between atoms: _40  and  _43
REMARK   20  A    between atoms: _43  and  _44
REMARK   21  A    between atoms: _44  and  _45
REMARK   22  A    between atoms: _45  and  _46
REMARK   23  A    between atoms: _55  and  _57
REMARK   24  A    between atoms: _57  and  _58
REMARK   25  A    between atoms: _57  and  _60
REMARK   26  A    between atoms: _60  and  _61
REMARK   27  A    between atoms: _66  and  _68
REMARK   28  A    between atoms: _68  and  _69
REMARK   29  A    between atoms: _68  and  _71
REMARK   30  A    between atoms: _71  and  _72
REMARK   31  A    between atoms: _77  and  _78
REMARK   32  A    between atoms: _80  and  _82
REMARK   33  A    between atoms: _82  and  _83
REMARK   34  A    between atoms: _82  and  _85
REMARK   35  A    between atoms: _85  and  _86
REMARK   36  A    between atoms: _91  and  _93
REMARK   37  A    between atoms: _93  and  _94
REMARK   38  A    between atoms: _93  and  _96
REMARK   39  A    between atoms: _96  and  _97
REMARK   40  A    between atoms: _97  and  _98
REMARK   41  A    between atoms: _103  and  _105
REMARK   42  A    between atoms: _105  and  _106
REMARK   43  A    between atoms: _105  and  _108
REMARK   44  A    between atoms: _108  and  _109
REMARK   45  A    between atoms: _109  and  _110
REMARK   46  A    between atoms: _110  and  _111
REMARK   47  A    between atoms: _120  and  _122
REMARK   48  A    between atoms: _122  and  _123
REMARK   49  A    between atoms: _122  and  _125
REMARK   50  A    between atoms: _125  and  _126
REMARK   51  A    between atoms: _129  and  _131
REMARK   52  A    between atoms: _131  and  _132
REMARK   53  A    between atoms: _131  and  _134
REMARK   54  A    between atoms: _134  and  _135
REMARK   55  A    between atoms: _138  and  _140
REMARK   56  A    between atoms: _140  and  _141
REMARK   57  A    between atoms: _140  and  _143
REMARK   58  A    between atoms: _143  and  _144
REMARK   59  A    between atoms: _147  and  _149
REMARK   60  A    between atoms: _149  and  _150
REMARK   61  A    between atoms: _149  and  _152
REMARK   62  A    between atoms: _152  and  _153
REMARK   63  A    between atoms: _156  and  _158
REMARK   64  A    between atoms: _158  and  _159
REMARK   65  A    between atoms: _162  and  _164
REMARK   66  A    between atoms: _164  and  _165
REMARK   67  A    between atoms: _164  and  _167
REMARK   68  A    between atoms: _167  and  _168
REMARK   69  A    between atoms: _171  and  _173
REMARK   70  A    between atoms: _173  and  _174
REMARK   71  A    between atoms: _173  and  _176
REMARK   72  A    between atoms: _176  and  _177
REMARK   73  A    between atoms: _182  and  _184
REMARK   74  A    between atoms: _184  and  _185
REMARK   75  A    between atoms: _184  and  _187
REMARK   76  A    between atoms: _190  and  _192
REMARK   77  A    between atoms: _192  and  _193
REMARK   78  A    between atoms: _192  and  _195
REMARK   79  A    between atoms: _195  and  _196
REMARK   80  A    between atoms: _199  and  _201
REMARK   81  A    between atoms: _201  and  _202
REMARK   82  A    between atoms: _201  and  _204
REMARK   83  A    between atoms: _204  and  _205
REMARK   84  A    between atoms: _208  and  _210
REMARK   85  A    between atoms: _210  and  _211
REMARK   86  A    between atoms: _210  and  _213
REMARK   87  A    between atoms: _213  and  _214
REMARK   88  A    between atoms: _220  and  _222
REMARK   89  A    between atoms: _222  and  _223
REMARK   90  A    between atoms: _222  and  _225
REMARK   91  A    between atoms: _225  and  _226
REMARK   92  A    between atoms: _231  and  _233
REMARK   93  A    between atoms: _233  and  _234
REMARK   94  A    between atoms: _233  and  _236
REMARK   95  A    between atoms: _236  and  _237
REMARK   96  A    between atoms: _247  and  _249
REMARK   97  A    between atoms: _249  and  _250
REMARK   98  A    between atoms: _249  and  _252
REMARK   99  A    between atoms: _252  and  _253
REMARK  100  A    between atoms: _258  and  _259
REMARK  101  A    between atoms: _261  and  _263
REMARK  102  A    between atoms: _263  and  _264
REMARK  103  A    between atoms: _267  and  _269
REMARK  104  A    between atoms: _269  and  _270
REMARK  105  A    between atoms: _269  and  _272
REMARK  106  A    between atoms: _272  and  _273
REMARK  107  A    between atoms: _279  and  _281
REMARK  108  A    between atoms: _281  and  _282
REMARK  109  A    between atoms: _281  and  _284
REMARK  110  A    between atoms: _284  and  _285
REMARK  111  A    between atoms: _290  and  _292
REMARK  112  A    between atoms: _292  and  _293
REMARK  113  A    between atoms: _292  and  _295
REMARK  114  A    between atoms: _295  and  _296
REMARK  115  A    between atoms: _301  and  _303
REMARK  116  A    between atoms: _303  and  _304
REMARK  117  A    between atoms: _303  and  _306
REMARK  118  A    between atoms: _306  and  _307
REMARK  119  A    between atoms: _307  and  _308
REMARK  120  A    between atoms: _313  and  _315
REMARK  121  A    between atoms: _315  and  _316
REMARK  122  A    between atoms: _315  and  _318
REMARK  123  A    between atoms: _318  and  _319
REMARK  124  A    between atoms: _324  and  _325
REMARK  125  A    between atoms: _327  and  _329
REMARK  126  A    between atoms: _329  and  _330
REMARK  127  A    between atoms: _329  and  _332
REMARK  128  A    between atoms: _332  and  _333
REMARK  129  A    between atoms: _336  and  _338
REMARK  130  A    between atoms: _338  and  _339
REMARK  131  A    between atoms: _342  and  _344
REMARK  132  A    between atoms: _344  and  _345
REMARK  133  A    between atoms: _344  and  _347
REMARK  134  A    between atoms: _347  and  _348
REMARK  135  A    between atoms: _350  and  _352
REMARK  136  A    between atoms: _352  and  _353
REMARK  137  A    between atoms: _352  and  _355
REMARK  138  A    between atoms: _355  and  _356
REMARK  139  A    between atoms: _361  and  _362
REMARK  140  A    between atoms: _364  and  _366
REMARK  141  A    between atoms: _366  and  _367
REMARK  142  A    between atoms: _366  and  _369
REMARK  143  A    between atoms: _369  and  _370
REMARK  144  A    between atoms: _370  and  _371
REMARK  145  A    between atoms: _373  and  _375
REMARK  146  A    between atoms: _375  and  _376
REMARK  147  A    between atoms: _375  and  _378
REMARK  148  A    between atoms: _378  and  _379
REMARK  149  A    between atoms: _379  and  _380
REMARK  150  A    between atoms: _380  and  _381
REMARK  151  A    between atoms: _381  and  _382
REMARK  152  A    between atoms: _386  and  _388
REMARK  153  A    between atoms: _388  and  _389
REMARK  154  A    between atoms: _388  and  _391
REMARK  155  A    between atoms: _391  and  _392
REMARK  156  A    between atoms: _397  and  _398
REMARK  157  A    between atoms: _400  and  _402
REMARK  158  A    between atoms: _402  and  _403
REMARK  159  A    between atoms: _402  and  _405
REMARK  160  A    between atoms: _405  and  _406
REMARK  161  A    between atoms: _408  and  _410
REMARK  162  A    between atoms: _410  and  _411
REMARK  163  A    between atoms: _414  and  _416
REMARK  164  A    between atoms: _416  and  _417
REMARK  165  A    between atoms: _416  and  _419
REMARK  166  A    between atoms: _419  and  _420
REMARK  167  A    between atoms: _423  and  _425
REMARK  168  A    between atoms: _425  and  _426
REMARK  169  A    between atoms: _425  and  _428
REMARK  170  A    between atoms: _428  and  _429
REMARK  171  A    between atoms: _439  and  _441
REMARK  172  A    between atoms: _441  and  _442
REMARK  173  A    between atoms: _441  and  _444
REMARK  174  A    between atoms: _444  and  _445
REMARK  175  A    between atoms: _445  and  _446
REMARK  176  A    between atoms: _451  and  _453
REMARK  177  A    between atoms: _453  and  _454
REMARK  178  A    between atoms: _453  and  _456
REMARK  179  A    between atoms: _459  and  _461
REMARK  180  A    between atoms: _461  and  _462
REMARK  181  A    between atoms: _461  and  _464
REMARK  182  A    between atoms: _464  and  _465
REMARK  183  A    between atoms: _468  and  _470
REMARK  184  A    between atoms: _470  and  _471
REMARK  185  A    between atoms: _474  and  _476
REMARK  186  A    between atoms: _476  and  _477
REMARK  187  A    between atoms: _476  and  _479
REMARK  188  A    between atoms: _482  and  _484
REMARK  189  A    between atoms: _484  and  _485
REMARK  190  A    between atoms: _484  and  _487
REMARK  191  A    between atoms: _487  and  _488
REMARK  192  A    between atoms: _494  and  _496
REMARK  193  A    between atoms: _496  and  _497
REMARK  194  A    between atoms: _496  and  _499
REMARK  195  A    between atoms: _499  and  _500
REMARK  196  A    between atoms: _502  and  _504
REMARK  197  A    between atoms: _504  and  _505
REMARK  198  A    between atoms: _504  and  _507
REMARK  199  A    between atoms: _507  and  _508
REMARK  200  A    between atoms: _513  and  _515
REMARK  201  A    between atoms: _515  and  _516
REMARK  202  A    between atoms: _515  and  _518
REMARK  203  A    between atoms: _518  and  _519
REMARK  204  A    between atoms: _529  and  _531
REMARK  205  A    between atoms: _531  and  _532
REMARK  206  A    between atoms: _531  and  _534
REMARK  207  A    between atoms: _534  and  _535
REMARK  208  A    between atoms: _538  and  _540
REMARK  209  A    between atoms: _540  and  _541
REMARK  210  A    between atoms: _540  and  _543
REMARK  211  A    between atoms: _543  and  _544
REMARK  212  A    between atoms: _549  and  _550
REMARK  213  A    between atoms: _552  and  _554
REMARK  214  A    between atoms: _554  and  _555
REMARK  215  A    between atoms: _554  and  _557
REMARK  216  A    between atoms: _557  and  _558
REMARK  217  A    between atoms: _561  and  _563
REMARK  218  A    between atoms: _563  and  _564
REMARK  219  A    between atoms: _563  and  _566
REMARK  220  A    between atoms: _566  and  _567
REMARK  221  A    between atoms: _567  and  _568
REMARK  222  A    between atoms: _571  and  _573
REMARK  223  A    between atoms: _573  and  _574
REMARK  224  A    between atoms: _573  and  _576
REMARK  225  A    between atoms: _576  and  _577
REMARK  226  A    between atoms: _582  and  _584
REMARK  227  A    between atoms: _584  and  _585
REMARK  228  A    between atoms: _587  and  _589
REMARK  229  A    between atoms: _589  and  _590
REMARK  230  A    between atoms: _589  and  _592
REMARK  231  A    between atoms: _592  and  _593
REMARK  232  A    between atoms: _593  and  _594
REMARK  233  A    between atoms: _596  and  _598
REMARK  234  A    between atoms: _598  and  _599
REMARK  235  A    between atoms: _598  and  _601
REMARK  236  A    between atoms: _601  and  _602
REMARK  237  A    between atoms: _605  and  _607
REMARK  238  A    between atoms: _607  and  _608
REMARK  239  A    between atoms: _607  and  _610
REMARK  240  A    between atoms: _610  and  _611
REMARK  241  A    between atoms: _621  and  _623
REMARK  242  A    between atoms: _623  and  _624
REMARK  243  A    between atoms: _623  and  _626
REMARK  244  A    between atoms: _626  and  _627
REMARK  245  A    between atoms: _629  and  _631
REMARK  246  A    between atoms: _631  and  _632
REMARK  247  A    between atoms: _631  and  _634
REMARK  248  A    between atoms: _634  and  _635
REMARK  249  A    between atoms: _640  and  _642
REMARK  250  A    between atoms: _642  and  _643
REMARK  251  A    between atoms: _642  and  _645
REMARK  252  A    between atoms: _645  and  _646
REMARK  253  A    between atoms: _652  and  _654
REMARK  254  A    between atoms: _654  and  _655
REMARK  255  A    between atoms: _654  and  _657
REMARK  256  A    between atoms: _657  and  _658
REMARK  257  A    between atoms: _658  and  _659
REMARK  258  A    between atoms: _662  and  _664
REMARK  259  A    between atoms: _664  and  _665
REMARK  260  A    between atoms: _664  and  _667
REMARK  261  A    between atoms: _667  and  _668
REMARK  262  A    between atoms: _678  and  _680
REMARK  263  A    between atoms: _680  and  _681
REMARK  264  A    between atoms: _680  and  _683
REMARK  265  A    between atoms: _683  and  _684
REMARK  266  A    between atoms: _687  and  _689
REMARK  267  A    between atoms: _689  and  _690
REMARK  268  A    between atoms: _689  and  _692
REMARK  269  A    between atoms: _692  and  _693
REMARK  270  A    between atoms: _695  and  _697
REMARK  271  A    between atoms: _697  and  _698
REMARK  272  A    between atoms: _697  and  _700
REMARK  273  A    between atoms: _700  and  _701
REMARK  274  A    between atoms: _703  and  _705
REMARK  275  A    between atoms: _705  and  _706
REMARK  276  A    between atoms: _705  and  _708
REMARK  277  A    between atoms: _708  and  _709
REMARK                            x       y       z     vdW  Elec       q    Type
REMARK                         _______ _______ _______ _____ _____    ______ ____
ROOT
ATOM      1  O   HOH     1       2.618   6.281  48.830  0.00  0.00    +0.000 OA
ENDROOT
TORSDOF 0
REMARK  Name = ../refined-set-2016/4qll/4qll_pocket.pdb
REMARK  277 active torsions:
REMARK  status: ('A' for Active; 'I' for Inactive)
REMARK    1  A    between atoms: _1  and  _3
REMARK    2  A    between atoms: _3  and  _4
REMARK    3  A    between atoms: _3  and  _6
REMARK    4  A    between atoms: _9  and  _11
REMARK    5  A    between atoms: _11  and  _12
REMARK    6  A    between atoms: _11  and  _14
REMARK    7  A    between atoms: _14  and  _15
REMARK    8  A    between atoms: _18  and  _20
REMARK    9  A    between atoms: _20  and  _21
REMARK   10  A    between atoms: _20  and  _23
REMARK   11  A    between atoms: _23  and  _24
REMARK   12  A    between atoms: _26  and  _28
REMARK   13  A    between atoms: _28  and  _29
REMARK   14  A    between atoms: _28  and  _31
REMARK   15  A    between atoms: _31  and  _32
REMARK   16  A    between atoms: _32  and  _33
REMARK   17  A    between atoms: _38  and  _40
REMARK   18  A    between atoms: _40  and  _41
REMARK   19  A    between atoms: _40  and  _43
REMARK   20  A    between atoms: _43  and  _44
REMARK   21  A    between atoms: _44  and  _45
REMARK   22  A    between atoms: _45  and  _46
REMARK   23  A    between atoms: _55  and  _57
REMARK   24  A    between atoms: _57  and  _58
REMARK   25  A    between atoms: _57  and  _60
REMARK   26  A    between atoms: _60  and  _61
REMARK   27  A    between atoms: _66  and  _68
REMARK   28  A    between atoms: _68  and  _69
REMARK   29  A    between atoms: _68  and  _71
REMARK   30  A    between atoms: _71  and  _72
REMARK   31  A    between atoms: _77  and  _78
REMARK   32  A    between atoms: _80  and  _82
REMARK   33  A    between atoms: _82  and  _83
REMARK   34  A    between atoms: _82  and  _85
REMARK   35  A    between atoms: _85  and  _86
REMARK   36  A    between atoms: _91  and  _93
REMARK   37  A    between atoms: _93  and  _94
REMARK   38  A    between atoms: _93  and  _96
REMARK   39  A    between atoms: _96  and  _97
REMARK   40  A    between atoms: _97  and  _98
REMARK   41  A    between atoms: _103  and  _105
REMARK   42  A    between atoms: _105  and  _106
REMARK   43  A    between atoms: _105  and  _108
REMARK   44  A    between atoms: _108  and  _109
REMARK   45  A    between atoms: _109  and  _110
REMARK   46  A    between atoms: _110  and  _111
REMARK   47  A    between atoms: _120  and  _122
REMARK   48  A    between atoms: _122  and  _123
REMARK   49  A    between atoms: _122  and  _125
REMARK   50  A    between atoms: _125  and  _126
REMARK   51  A    between atoms: _129  and  _131
REMARK   52  A    between atoms: _131  and  _132
REMARK   53  A    between atoms: _131  and  _134
REMARK   54  A    between atoms: _134  and  _135
REMARK   55  A    between atoms: _138  and  _140
REMARK   56  A    between atoms: _140  and  _141
REMARK   57  A    between atoms: _140  and  _143
REMARK   58  A    between atoms: _143  and  _144
REMARK   59  A    between atoms: _147  and  _149
REMARK   60  A    between atoms: _149  and  _150
REMARK   61  A    between atoms: _149  and  _152
REMARK   62  A    between atoms: _152  and  _153
REMARK   63  A    between atoms: _156  and  _158
REMARK   64  A    between atoms: _158  and  _159
REMARK   65  A    between atoms: _162  and  _164
REMARK   66  A    between atoms: _164  and  _165
REMARK   67  A    between atoms: _164  and  _167
REMARK   68  A    between atoms: _167  and  _168
REMARK   69  A    between atoms: _171  and  _173
REMARK   70  A    between atoms: _173  and  _174
REMARK   71  A    between atoms: _173  and  _176
REMARK   72  A    between atoms: _176  and  _177
REMARK   73  A    between atoms: _182  and  _184
REMARK   74  A    between atoms: _184  and  _185
REMARK   75  A    between atoms: _184  and  _187
REMARK   76  A    between atoms: _190  and  _192
REMARK   77  A    between atoms: _192  and  _193
REMARK   78  A    between atoms: _192  and  _195
REMARK   79  A    between atoms: _195  and  _196
REMARK   80  A    between atoms: _199  and  _201
REMARK   81  A    between atoms: _201  and  _202
REMARK   82  A    between atoms: _201  and  _204
REMARK   83  A    between atoms: _204  and  _205
REMARK   84  A    between atoms: _208  and  _210
REMARK   85  A    between atoms: _210  and  _211
REMARK   86  A    between atoms: _210  and  _213
REMARK   87  A    between atoms: _213  and  _214
REMARK   88  A    between atoms: _220  and  _222
REMARK   89  A    between atoms: _222  and  _223
REMARK   90  A    between atoms: _222  and  _225
REMARK   91  A    between atoms: _225  and  _226
REMARK   92  A    between atoms: _231  and  _233
REMARK   93  A    between atoms: _233  and  _234
REMARK   94  A    between atoms: _233  and  _236
REMARK   95  A    between atoms: _236  and  _237
REMARK   96  A    between atoms: _247  and  _249
REMARK   97  A    between atoms: _249  and  _250
REMARK   98  A    between atoms: _249  and  _252
REMARK   99  A    between atoms: _252  and  _253
REMARK  100  A    between atoms: _258  and  _259
REMARK  101  A    between atoms: _261  and  _263
REMARK  102  A    between atoms: _263  and  _264
REMARK  103  A    between atoms: _267  and  _269
REMARK  104  A    between atoms: _269  and  _270
REMARK  105  A    between atoms: _269  and  _272
REMARK  106  A    between atoms: _272  and  _273
REMARK  107  A    between atoms: _279  and  _281
REMARK  108  A    between atoms: _281  and  _282
REMARK  109  A    between atoms: _281  and  _284
REMARK  110  A    between atoms: _284  and  _285
REMARK  111  A    between atoms: _290  and  _292
REMARK  112  A    between atoms: _292  and  _293
REMARK  113  A    between atoms: _292  and  _295
REMARK  114  A    between atoms: _295  and  _296
REMARK  115  A    between atoms: _301  and  _303
REMARK  116  A    between atoms: _303  and  _304
REMARK  117  A    between atoms: _303  and  _306
REMARK  118  A    between atoms: _306  and  _307
REMARK  119  A    between atoms: _307  and  _308
REMARK  120  A    between atoms: _313  and  _315
REMARK  121  A    between atoms: _315  and  _316
REMARK  122  A    between atoms: _315  and  _318
REMARK  123  A    between atoms: _318  and  _319
REMARK  124  A    between atoms: _324  and  _325
REMARK  125  A    between atoms: _327  and  _329
REMARK  126  A    between atoms: _329  and  _330
REMARK  127  A    between atoms: _329  and  _332
REMARK  128  A    between atoms: _332  and  _333
REMARK  129  A    between atoms: _336  and  _338
REMARK  130  A    between atoms: _338  and  _339
REMARK  131  A    between atoms: _342  and  _344
REMARK  132  A    between atoms: _344  and  _345
REMARK  133  A    between atoms: _344  and  _347
REMARK  134  A    between atoms: _347  and  _348
REMARK  135  A    between atoms: _350  and  _352
REMARK  136  A    between atoms: _352  and  _353
REMARK  137  A    between atoms: _352  and  _355
REMARK  138  A    between atoms: _355  and  _356
REMARK  139  A    between atoms: _361  and  _362
REMARK  140  A    between atoms: _364  and  _366
REMARK  141  A    between atoms: _366  and  _367
REMARK  142  A    between atoms: _366  and  _369
REMARK  143  A    between atoms: _369  and  _370
REMARK  144  A    between atoms: _370  and  _371
REMARK  145  A    between atoms: _373  and  _375
REMARK  146  A    between atoms: _375  and  _376
REMARK  147  A    between atoms: _375  and  _378
REMARK  148  A    between atoms: _378  and  _379
REMARK  149  A    between atoms: _379  and  _380
REMARK  150  A    between atoms: _380  and  _381
REMARK  151  A    between atoms: _381  and  _382
REMARK  152  A    between atoms: _386  and  _388
REMARK  153  A    between atoms: _388  and  _389
REMARK  154  A    between atoms: _388  and  _391
REMARK  155  A    between atoms: _391  and  _392
REMARK  156  A    between atoms: _397  and  _398
REMARK  157  A    between atoms: _400  and  _402
REMARK  158  A    between atoms: _402  and  _403
REMARK  159  A    between atoms: _402  and  _405
REMARK  160  A    between atoms: _405  and  _406
REMARK  161  A    between atoms: _408  and  _410
REMARK  162  A    between atoms: _410  and  _411
REMARK  163  A    between atoms: _414  and  _416
REMARK  164  A    between atoms: _416  and  _417
REMARK  165  A    between atoms: _416  and  _419
REMARK  166  A    between atoms: _419  and  _420
REMARK  167  A    between atoms: _423  and  _425
REMARK  168  A    between atoms: _425  and  _426
REMARK  169  A    between atoms: _425  and  _428
REMARK  170  A    between atoms: _428  and  _429
REMARK  171  A    between atoms: _439  and  _441
REMARK  172  A    between atoms: _441  and  _442
REMARK  173  A    between atoms: _441  and  _444
REMARK  174  A    between atoms: _444  and  _445
REMARK  175  A    between atoms: _445  and  _446
REMARK  176  A    between atoms: _451  and  _453
REMARK  177  A    between atoms: _453  and  _454
REMARK  178  A    between atoms: _453  and  _456
REMARK  179  A    between atoms: _459  and  _461
REMARK  180  A    between atoms: _461  and  _462
REMARK  181  A    between atoms: _461  and  _464
REMARK  182  A    between atoms: _464  and  _465
REMARK  183  A    between atoms: _468  and  _470
REMARK  184  A    between atoms: _470  and  _471
REMARK  185  A    between atoms: _474  and  _476
REMARK  186  A    between atoms: _476  and  _477
REMARK  187  A    between atoms: _476  and  _479
REMARK  188  A    between atoms: _482  and  _484
REMARK  189  A    between atoms: _484  and  _485
REMARK  190  A    between atoms: _484  and  _487
REMARK  191  A    between atoms: _487  and  _488
REMARK  192  A    between atoms: _494  and  _496
REMARK  193  A    between atoms: _496  and  _497
REMARK  194  A    between atoms: _496  and  _499
REMARK  195  A    between atoms: _499  and  _500
REMARK  196  A    between atoms: _502  and  _504
REMARK  197  A    between atoms: _504  and  _505
REMARK  198  A    between atoms: _504  and  _507
REMARK  199  A    between atoms: _507  and  _508
REMARK  200  A    between atoms: _513  and  _515
REMARK  201  A    between atoms: _515  and  _516
REMARK  202  A    between atoms: _515  and  _518
REMARK  203  A    between atoms: _518  and  _519
REMARK  204  A    between atoms: _529  and  _531
REMARK  205  A    between atoms: _531  and  _532
REMARK  206  A    between atoms: _531  and  _534
REMARK  207  A    between atoms: _534  and  _535
REMARK  208  A    between atoms: _538  and  _540
REMARK  209  A    between atoms: _540  and  _541
REMARK  210  A    between atoms: _540  and  _543
REMARK  211  A    between atoms: _543  and  _544
REMARK  212  A    between atoms: _549  and  _550
REMARK  213  A    between atoms: _552  and  _554
REMARK  214  A    between atoms: _554  and  _555
REMARK  215  A    between atoms: _554  and  _557
REMARK  216  A    between atoms: _557  and  _558
REMARK  217  A    between atoms: _561  and  _563
REMARK  218  A    between atoms: _563  and  _564
REMARK  219  A    between atoms: _563  and  _566
REMARK  220  A    between atoms: _566  and  _567
REMARK  221  A    between atoms: _567  and  _568
REMARK  222  A    between atoms: _571  and  _573
REMARK  223  A    between atoms: _573  and  _574
REMARK  224  A    between atoms: _573  and  _576
REMARK  225  A    between atoms: _576  and  _577
REMARK  226  A    between atoms: _582  and  _584
REMARK  227  A    between atoms: _584  and  _585
REMARK  228  A    between atoms: _587  and  _589
REMARK  229  A    between atoms: _589  and  _590
REMARK  230  A    between atoms: _589  and  _592
REMARK  231  A    between atoms: _592  and  _593
REMARK  232  A    between atoms: _593  and  _594
REMARK  233  A    between atoms: _596  and  _598
REMARK  234  A    between atoms: _598  and  _599
REMARK  235  A    between atoms: _598  and  _601
REMARK  236  A    between atoms: _601  and  _602
REMARK  237  A    between atoms: _605  and  _607
REMARK  238  A    between atoms: _607  and  _608
REMARK  239  A    between atoms: _607  and  _610
REMARK  240  A    between atoms: _610  and  _611
REMARK  241  A    between atoms: _621  and  _623
REMARK  242  A    between atoms: _623  and  _624
REMARK  243  A    between atoms: _623  and  _626
REMARK  244  A    between atoms: _626  and  _627
REMARK  245  A    between atoms: _629  and  _631
REMARK  246  A    between atoms: _631  and  _632
REMARK  247  A    between atoms: _631  and  _634
REMARK  248  A    between atoms: _634  and  _635
REMARK  249  A    between atoms: _640  and  _642
REMARK  250  A    between atoms: _642  and  _643
REMARK  251  A    between atoms: _642  and  _645
REMARK  252  A    between atoms: _645  and  _646
REMARK  253  A    between atoms: _652  and  _654
REMARK  254  A    between atoms: _654  and  _655
REMARK  255  A    between atoms: _654  and  _657
REMARK  256  A    between atoms: _657  and  _658
REMARK  257  A    between atoms: _658  and  _659
REMARK  258  A    between atoms: _662  and  _664
REMARK  259  A    between atoms: _664  and  _665
REMARK  260  A    between atoms: _664  and  _667
REMARK  261  A    between atoms: _667  and  _668
REMARK  262  A    between atoms: _678  and  _680
REMARK  263  A    between atoms: _680  and  _681
REMARK  264  A    between atoms: _680  and  _683
REMARK  265  A    between atoms: _683  and  _684
REMARK  266  A    between atoms: _687  and  _689
REMARK  267  A    between atoms: _689  and  _690
REMARK  268  A    between atoms: _689  and  _692
REMARK  269  A    between atoms: _692  and  _693
REMARK  270  A    between atoms: _695  and  _697
REMARK  271  A    between atoms: _697  and  _698
REMARK  272  A    between atoms: _697  and  _700
REMARK  273  A    between atoms: _700  and  _701
REMARK  274  A    between atoms: _703  and  _705
REMARK  275  A    between atoms: _705  and  _706
REMARK  276  A    between atoms: _705  and  _708
REMARK  277  A    between atoms: _708  and  _709
REMARK                            x       y       z     vdW  Elec       q    Type
REMARK                         _______ _______ _______ _____ _____    ______ ____
ROOT
ATOM      1  O   HOH     1      -3.867  -4.606  42.281  0.00  0.00    +0.000 OA
ENDROOT
TORSDOF 0
REMARK  Name = ../refined-set-2016/4qll/4qll_pocket.pdb
REMARK  277 active torsions:
REMARK  status: ('A' for Active; 'I' for Inactive)
REMARK    1  A    between atoms: _1  and  _3
REMARK    2  A    between atoms: _3  and  _4
REMARK    3  A    between atoms: _3  and  _6
REMARK    4  A    between atoms: _9  and  _11
REMARK    5  A    between atoms: _11  and  _12
REMARK    6  A    between atoms: _11  and  _14
REMARK    7  A    between atoms: _14  and  _15
REMARK    8  A    between atoms: _18  and  _20
REMARK    9  A    between atoms: _20  and  _21
REMARK   10  A    between atoms: _20  and  _23
REMARK   11  A    between atoms: _23  and  _24
REMARK   12  A    between atoms: _26  and  _28
REMARK   13  A    between atoms: _28  and  _29
REMARK   14  A    between atoms: _28  and  _31
REMARK   15  A    between atoms: _31  and  _32
REMARK   16  A    between atoms: _32  and  _33
REMARK   17  A    between atoms: _38  and  _40
REMARK   18  A    between atoms: _40  and  _41
REMARK   19  A    between atoms: _40  and  _43
REMARK   20  A    between atoms: _43  and  _44
REMARK   21  A    between atoms: _44  and  _45
REMARK   22  A    between atoms: _45  and  _46
REMARK   23  A    between atoms: _55  and  _57
REMARK   24  A    between atoms: _57  and  _58
REMARK   25  A    between atoms: _57  and  _60
REMARK   26  A    between atoms: _60  and  _61
REMARK   27  A    between atoms: _66  and  _68
REMARK   28  A    between atoms: _68  and  _69
REMARK   29  A    between atoms: _68  and  _71
REMARK   30  A    between atoms: _71  and  _72
REMARK   31  A    between atoms: _77  and  _78
REMARK   32  A    between atoms: _80  and  _82
REMARK   33  A    between atoms: _82  and  _83
REMARK   34  A    between atoms: _82  and  _85
REMARK   35  A    between atoms: _85  and  _86
REMARK   36  A    between atoms: _91  and  _93
REMARK   37  A    between atoms: _93  and  _94
REMARK   38  A    between atoms: _93  and  _96
REMARK   39  A    between atoms: _96  and  _97
REMARK   40  A    between atoms: _97  and  _98
REMARK   41  A    between atoms: _103  and  _105
REMARK   42  A    between atoms: _105  and  _106
REMARK   43  A    between atoms: _105  and  _108
REMARK   44  A    between atoms: _108  and  _109
REMARK   45  A    between atoms: _109  and  _110
REMARK   46  A    between atoms: _110  and  _111
REMARK   47  A    between atoms: _120  and  _122
REMARK   48  A    between atoms: _122  and  _123
REMARK   49  A    between atoms: _122  and  _125
REMARK   50  A    between atoms: _125  and  _126
REMARK   51  A    between atoms: _129  and  _131
REMARK   52  A    between atoms: _131  and  _132
REMARK   53  A    between atoms: _131  and  _134
REMARK   54  A    between atoms: _134  and  _135
REMARK   55  A    between atoms: _138  and  _140
REMARK   56  A    between atoms: _140  and  _141
REMARK   57  A    between atoms: _140  and  _143
REMARK   58  A    between atoms: _143  and  _144
REMARK   59  A    between atoms: _147  and  _149
REMARK   60  A    between atoms: _149  and  _150
REMARK   61  A    between atoms: _149  and  _152
REMARK   62  A    between atoms: _152  and  _153
REMARK   63  A    between atoms: _156  and  _158
REMARK   64  A    between atoms: _158  and  _159
REMARK   65  A    between atoms: _162  and  _164
REMARK   66  A    between atoms: _164  and  _165
REMARK   67  A    between atoms: _164  and  _167
REMARK   68  A    between atoms: _167  and  _168
REMARK   69  A    between atoms: _171  and  _173
REMARK   70  A    between atoms: _173  and  _174
REMARK   71  A    between atoms: _173  and  _176
REMARK   72  A    between atoms: _176  and  _177
REMARK   73  A    between atoms: _182  and  _184
REMARK   74  A    between atoms: _184  and  _185
REMARK   75  A    between atoms: _184  and  _187
REMARK   76  A    between atoms: _190  and  _192
REMARK   77  A    between atoms: _192  and  _193
REMARK   78  A    between atoms: _192  and  _195
REMARK   79  A    between atoms: _195  and  _196
REMARK   80  A    between atoms: _199  and  _201
REMARK   81  A    between atoms: _201  and  _202
REMARK   82  A    between atoms: _201  and  _204
REMARK   83  A    between atoms: _204  and  _205
REMARK   84  A    between atoms: _208  and  _210
REMARK   85  A    between atoms: _210  and  _211
REMARK   86  A    between atoms: _210  and  _213
REMARK   87  A    between atoms: _213  and  _214
REMARK   88  A    between atoms: _220  and  _222
REMARK   89  A    between atoms: _222  and  _223
REMARK   90  A    between atoms: _222  and  _225
REMARK   91  A    between atoms: _225  and  _226
REMARK   92  A    between atoms: _231  and  _233
REMARK   93  A    between atoms: _233  and  _234
REMARK   94  A    between atoms: _233  and  _236
REMARK   95  A    between atoms: _236  and  _237
REMARK   96  A    between atoms: _247  and  _249
REMARK   97  A    between atoms: _249  and  _250
REMARK   98  A    between atoms: _249  and  _252
REMARK   99  A    between atoms: _252  and  _253
REMARK  100  A    between atoms: _258  and  _259
REMARK  101  A    between atoms: _261  and  _263
REMARK  102  A    between atoms: _263  and  _264
REMARK  103  A    between atoms: _267  and  _269
REMARK  104  A    between atoms: _269  and  _270
REMARK  105  A    between atoms: _269  and  _272
REMARK  106  A    between atoms: _272  and  _273
REMARK  107  A    between atoms: _279  and  _281
REMARK  108  A    between atoms: _281  and  _282
REMARK  109  A    between atoms: _281  and  _284
REMARK  110  A    between atoms: _284  and  _285
REMARK  111  A    between atoms: _290  and  _292
REMARK  112  A    between atoms: _292  and  _293
REMARK  113  A    between atoms: _292  and  _295
REMARK  114  A    between atoms: _295  and  _296
REMARK  115  A    between atoms: _301  and  _303
REMARK  116  A    between atoms: _303  and  _304
REMARK  117  A    between atoms: _303  and  _306
REMARK  118  A    between atoms: _306  and  _307
REMARK  119  A    between atoms: _307  and  _308
REMARK  120  A    between atoms: _313  and  _315
REMARK  121  A    between atoms: _315  and  _316
REMARK  122  A    between atoms: _315  and  _318
REMARK  123  A    between atoms: _318  and  _319
REMARK  124  A    between atoms: _324  and  _325
REMARK  125  A    between atoms: _327  and  _329
REMARK  126  A    between atoms: _329  and  _330
REMARK  127  A    between atoms: _329  and  _332
REMARK  128  A    between atoms: _332  and  _333
REMARK  129  A    between atoms: _336  and  _338
REMARK  130  A    between atoms: _338  and  _339
REMARK  131  A    between atoms: _342  and  _344
REMARK  132  A    between atoms: _344  and  _345
REMARK  133  A    between atoms: _344  and  _347
REMARK  134  A    between atoms: _347  and  _348
REMARK  135  A    between atoms: _350  and  _352
REMARK  136  A    between atoms: _352  and  _353
REMARK  137  A    between atoms: _352  and  _355
REMARK  138  A    between atoms: _355  and  _356
REMARK  139  A    between atoms: _361  and  _362
REMARK  140  A    between atoms: _364  and  _366
REMARK  141  A    between atoms: _366  and  _367
REMARK  142  A    between atoms: _366  and  _369
REMARK  143  A    between atoms: _369  and  _370
REMARK  144  A    between atoms: _370  and  _371
REMARK  145  A    between atoms: _373  and  _375
REMARK  146  A    between atoms: _375  and  _376
REMARK  147  A    between atoms: _375  and  _378
REMARK  148  A    between atoms: _378  and  _379
REMARK  149  A    between atoms: _379  and  _380
REMARK  150  A    between atoms: _380  and  _381
REMARK  151  A    between atoms: _381  and  _382
REMARK  152  A    between atoms: _386  and  _388
REMARK  153  A    between atoms: _388  and  _389
REMARK  154  A    between atoms: _388  and  _391
REMARK  155  A    between atoms: _391  and  _392
REMARK  156  A    between atoms: _397  and  _398
REMARK  157  A    between atoms: _400  and  _402
REMARK  158  A    between atoms: _402  and  _403
REMARK  159  A    between atoms: _402  and  _405
REMARK  160  A    between atoms: _405  and  _406
REMARK  161  A    between atoms: _408  and  _410
REMARK  162  A    between atoms: _410  and  _411
REMARK  163  A    between atoms: _414  and  _416
REMARK  164  A    between atoms: _416  and  _417
REMARK  165  A    between atoms: _416  and  _419
REMARK  166  A    between atoms: _419  and  _420
REMARK  167  A    between atoms: _423  and  _425
REMARK  168  A    between atoms: _425  and  _426
REMARK  169  A    between atoms: _425  and  _428
REMARK  170  A    between atoms: _428  and  _429
REMARK  171  A    between atoms: _439  and  _441
REMARK  172  A    between atoms: _441  and  _442
REMARK  173  A    between atoms: _441  and  _444
REMARK  174  A    between atoms: _444  and  _445
REMARK  175  A    between atoms: _445  and  _446
REMARK  176  A    between atoms: _451  and  _453
REMARK  177  A    between atoms: _453  and  _454
REMARK  178  A    between atoms: _453  and  _456
REMARK  179  A    between atoms: _459  and  _461
REMARK  180  A    between atoms: _461  and  _462
REMARK  181  A    between atoms: _461  and  _464
REMARK  182  A    between atoms: _464  and  _465
REMARK  183  A    between atoms: _468  and  _470
REMARK  184  A    between atoms: _470  and  _471
REMARK  185  A    between atoms: _474  and  _476
REMARK  186  A    between atoms: _476  and  _477
REMARK  187  A    between atoms: _476  and  _479
REMARK  188  A    between atoms: _482  and  _484
REMARK  189  A    between atoms: _484  and  _485
REMARK  190  A    between atoms: _484  and  _487
REMARK  191  A    between atoms: _487  and  _488
REMARK  192  A    between atoms: _494  and  _496
REMARK  193  A    between atoms: _496  and  _497
REMARK  194  A    between atoms: _496  and  _499
REMARK  195  A    between atoms: _499  and  _500
REMARK  196  A    between atoms: _502  and  _504
REMARK  197  A    between atoms: _504  and  _505
REMARK  198  A    between atoms: _504  and  _507
REMARK  199  A    between atoms: _507  and  _508
REMARK  200  A    between atoms: _513  and  _515
REMARK  201  A    between atoms: _515  and  _516
REMARK  202  A    between atoms: _515  and  _518
REMARK  203  A    between atoms: _518  and  _519
REMARK  204  A    between atoms: _529  and  _531
REMARK  205  A    between atoms: _531  and  _532
REMARK  206  A    between atoms: _531  and  _534
REMARK  207  A    between atoms: _534  and  _535
REMARK  208  A    between atoms: _538  and  _540
REMARK  209  A    between atoms: _540  and  _541
REMARK  210  A    between atoms: _540  and  _543
REMARK  211  A    between atoms: _543  and  _544
REMARK  212  A    between atoms: _549  and  _550
REMARK  213  A    between atoms: _552  and  _554
REMARK  214  A    between atoms: _554  and  _555
REMARK  215  A    between atoms: _554  and  _557
REMARK  216  A    between atoms: _557  and  _558
REMARK  217  A    between atoms: _561  and  _563
REMARK  218  A    between atoms: _563  and  _564
REMARK  219  A    between atoms: _563  and  _566
REMARK  220  A    between atoms: _566  and  _567
REMARK  221  A    between atoms: _567  and  _568
REMARK  222  A    between atoms: _571  and  _573
REMARK  223  A    between atoms: _573  and  _574
REMARK  224  A    between atoms: _573  and  _576
REMARK  225  A    between atoms: _576  and  _577
REMARK  226  A    between atoms: _582  and  _584
REMARK  227  A    between atoms: _584  and  _585
REMARK  228  A    between atoms: _587  and  _589
REMARK  229  A    between atoms: _589  and  _590
REMARK  230  A    between atoms: _589  and  _592
REMARK  231  A    between atoms: _592  and  _593
REMARK  232  A    between atoms: _593  and  _594
REMARK  233  A    between atoms: _596  and  _598
REMARK  234  A    between atoms: _598  and  _599
REMARK  235  A    between atoms: _598  and  _601
REMARK  236  A    between atoms: _601  and  _602
REMARK  237  A    between atoms: _605  and  _607
REMARK  238  A    between atoms: _607  and  _608
REMARK  239  A    between atoms: _607  and  _610
REMARK  240  A    between atoms: _610  and  _611
REMARK  241  A    between atoms: _621  and  _623
REMARK  242  A    between atoms: _623  and  _624
REMARK  243  A    between atoms: _623  and  _626
REMARK  244  A    between atoms: _626  and  _627
REMARK  245  A    between atoms: _629  and  _631
REMARK  246  A    between atoms: _631  and  _632
REMARK  247  A    between atoms: _631  and  _634
REMARK  248  A    between atoms: _634  and  _635
REMARK  249  A    between atoms: _640  and  _642
REMARK  250  A    between atoms: _642  and  _643
REMARK  251  A    between atoms: _642  and  _645
REMARK  252  A    between atoms: _645  and  _646
REMARK  253  A    between atoms: _652  and  _654
REMARK  254  A    between atoms: _654  and  _655
REMARK  255  A    between atoms: _654  and  _657
REMARK  256  A    between atoms: _657  and  _658
REMARK  257  A    between atoms: _658  and  _659
REMARK  258  A    between atoms: _662  and  _664
REMARK  259  A    between atoms: _664  and  _665
REMARK  260  A    between atoms: _664  and  _667
REMARK  261  A    between atoms: _667  and  _668
REMARK  262  A    between atoms: _678  and  _680
REMARK  263  A    between atoms: _680  and  _681
REMARK  264  A    between atoms: _680  and  _683
REMARK  265  A    between atoms: _683  and  _684
REMARK  266  A    between atoms: _687  and  _689
REMARK  267  A    between atoms: _689  and  _690
REMARK  268  A    between atoms: _689  and  _692
REMARK  269  A    between atoms: _692  and  _693
REMARK  270  A    between atoms: _695  and  _697
REMARK  271  A    between atoms: _697  and  _698
REMARK  272  A    between atoms: _697  and  _700
REMARK  273  A    between atoms: _700  and  _701
REMARK  274  A    between atoms: _703  and  _705
REMARK  275  A    between atoms: _705  and  _706
REMARK  276  A    between atoms: _705  and  _708
REMARK  277  A    between atoms: _708  and  _709
REMARK                            x       y       z     vdW  Elec       q    Type
REMARK                         _______ _______ _______ _____ _____    ______ ____
ROOT
ATOM      1  O   HOH     1       2.179  -4.548  57.477  0.00  0.00    +0.000 OA
ENDROOT
TORSDOF 0
REMARK  Name = ../refined-set-2016/4qll/4qll_pocket.pdb
REMARK  277 active torsions:
REMARK  status: ('A' for Active; 'I' for Inactive)
REMARK    1  A    between atoms: _1  and  _3
REMARK    2  A    between atoms: _3  and  _4
REMARK    3  A    between atoms: _3  and  _6
REMARK    4  A    between atoms: _9  and  _11
REMARK    5  A    between atoms: _11  and  _12
REMARK    6  A    between atoms: _11  and  _14
REMARK    7  A    between atoms: _14  and  _15
REMARK    8  A    between atoms: _18  and  _20
REMARK    9  A    between atoms: _20  and  _21
REMARK   10  A    between atoms: _20  and  _23
REMARK   11  A    between atoms: _23  and  _24
REMARK   12  A    between atoms: _26  and  _28
REMARK   13  A    between atoms: _28  and  _29
REMARK   14  A    between atoms: _28  and  _31
REMARK   15  A    between atoms: _31  and  _32
REMARK   16  A    between atoms: _32  and  _33
REMARK   17  A    between atoms: _38  and  _40
REMARK   18  A    between atoms: _40  and  _41
REMARK   19  A    between atoms: _40  and  _43
REMARK   20  A    between atoms: _43  and  _44
REMARK   21  A    between atoms: _44  and  _45
REMARK   22  A    between atoms: _45  and  _46
REMARK   23  A    between atoms: _55  and  _57
REMARK   24  A    between atoms: _57  and  _58
REMARK   25  A    between atoms: _57  and  _60
REMARK   26  A    between atoms: _60  and  _61
REMARK   27  A    between atoms: _66  and  _68
REMARK   28  A    between atoms: _68  and  _69
REMARK   29  A    between atoms: _68  and  _71
REMARK   30  A    between atoms: _71  and  _72
REMARK   31  A    between atoms: _77  and  _78
REMARK   32  A    between atoms: _80  and  _82
REMARK   33  A    between atoms: _82  and  _83
REMARK   34  A    between atoms: _82  and  _85
REMARK   35  A    between atoms: _85  and  _86
REMARK   36  A    between atoms: _91  and  _93
REMARK   37  A    between atoms: _93  and  _94
REMARK   38  A    between atoms: _93  and  _96
REMARK   39  A    between atoms: _96  and  _97
REMARK   40  A    between atoms: _97  and  _98
REMARK   41  A    between atoms: _103  and  _105
REMARK   42  A    between atoms: _105  and  _106
REMARK   43  A    between atoms: _105  and  _108
REMARK   44  A    between atoms: _108  and  _109
REMARK   45  A    between atoms: _109  and  _110
REMARK   46  A    between atoms: _110  and  _111
REMARK   47  A    between atoms: _120  and  _122
REMARK   48  A    between atoms: _122  and  _123
REMARK   49  A    between atoms: _122  and  _125
REMARK   50  A    between atoms: _125  and  _126
REMARK   51  A    between atoms: _129  and  _131
REMARK   52  A    between atoms: _131  and  _132
REMARK   53  A    between atoms: _131  and  _134
REMARK   54  A    between atoms: _134  and  _135
REMARK   55  A    between atoms: _138  and  _140
REMARK   56  A    between atoms: _140  and  _141
REMARK   57  A    between atoms: _140  and  _143
REMARK   58  A    between atoms: _143  and  _144
REMARK   59  A    between atoms: _147  and  _149
REMARK   60  A    between atoms: _149  and  _150
REMARK   61  A    between atoms: _149  and  _152
REMARK   62  A    between atoms: _152  and  _153
REMARK   63  A    between atoms: _156  and  _158
REMARK   64  A    between atoms: _158  and  _159
REMARK   65  A    between atoms: _162  and  _164
REMARK   66  A    between atoms: _164  and  _165
REMARK   67  A    between atoms: _164  and  _167
REMARK   68  A    between atoms: _167  and  _168
REMARK   69  A    between atoms: _171  and  _173
REMARK   70  A    between atoms: _173  and  _174
REMARK   71  A    between atoms: _173  and  _176
REMARK   72  A    between atoms: _176  and  _177
REMARK   73  A    between atoms: _182  and  _184
REMARK   74  A    between atoms: _184  and  _185
REMARK   75  A    between atoms: _184  and  _187
REMARK   76  A    between atoms: _190  and  _192
REMARK   77  A    between atoms: _192  and  _193
REMARK   78  A    between atoms: _192  and  _195
REMARK   79  A    between atoms: _195  and  _196
REMARK   80  A    between atoms: _199  and  _201
REMARK   81  A    between atoms: _201  and  _202
REMARK   82  A    between atoms: _201  and  _204
REMARK   83  A    between atoms: _204  and  _205
REMARK   84  A    between atoms: _208  and  _210
REMARK   85  A    between atoms: _210  and  _211
REMARK   86  A    between atoms: _210  and  _213
REMARK   87  A    between atoms: _213  and  _214
REMARK   88  A    between atoms: _220  and  _222
REMARK   89  A    between atoms: _222  and  _223
REMARK   90  A    between atoms: _222  and  _225
REMARK   91  A    between atoms: _225  and  _226
REMARK   92  A    between atoms: _231  and  _233
REMARK   93  A    between atoms: _233  and  _234
REMARK   94  A    between atoms: _233  and  _236
REMARK   95  A    between atoms: _236  and  _237
REMARK   96  A    between atoms: _247  and  _249
REMARK   97  A    between atoms: _249  and  _250
REMARK   98  A    between atoms: _249  and  _252
REMARK   99  A    between atoms: _252  and  _253
REMARK  100  A    between atoms: _258  and  _259
REMARK  101  A    between atoms: _261  and  _263
REMARK  102  A    between atoms: _263  and  _264
REMARK  103  A    between atoms: _267  and  _269
REMARK  104  A    between atoms: _269  and  _270
REMARK  105  A    between atoms: _269  and  _272
REMARK  106  A    between atoms: _272  and  _273
REMARK  107  A    between atoms: _279  and  _281
REMARK  108  A    between atoms: _281  and  _282
REMARK  109  A    between atoms: _281  and  _284
REMARK  110  A    between atoms: _284  and  _285
REMARK  111  A    between atoms: _290  and  _292
REMARK  112  A    between atoms: _292  and  _293
REMARK  113  A    between atoms: _292  and  _295
REMARK  114  A    between atoms: _295  and  _296
REMARK  115  A    between atoms: _301  and  _303
REMARK  116  A    between atoms: _303  and  _304
REMARK  117  A    between atoms: _303  and  _306
REMARK  118  A    between atoms: _306  and  _307
REMARK  119  A    between atoms: _307  and  _308
REMARK  120  A    between atoms: _313  and  _315
REMARK  121  A    between atoms: _315  and  _316
REMARK  122  A    between atoms: _315  and  _318
REMARK  123  A    between atoms: _318  and  _319
REMARK  124  A    between atoms: _324  and  _325
REMARK  125  A    between atoms: _327  and  _329
REMARK  126  A    between atoms: _329  and  _330
REMARK  127  A    between atoms: _329  and  _332
REMARK  128  A    between atoms: _332  and  _333
REMARK  129  A    between atoms: _336  and  _338
REMARK  130  A    between atoms: _338  and  _339
REMARK  131  A    between atoms: _342  and  _344
REMARK  132  A    between atoms: _344  and  _345
REMARK  133  A    between atoms: _344  and  _347
REMARK  134  A    between atoms: _347  and  _348
REMARK  135  A    between atoms: _350  and  _352
REMARK  136  A    between atoms: _352  and  _353
REMARK  137  A    between atoms: _352  and  _355
REMARK  138  A    between atoms: _355  and  _356
REMARK  139  A    between atoms: _361  and  _362
REMARK  140  A    between atoms: _364  and  _366
REMARK  141  A    between atoms: _366  and  _367
REMARK  142  A    between atoms: _366  and  _369
REMARK  143  A    between atoms: _369  and  _370
REMARK  144  A    between atoms: _370  and  _371
REMARK  145  A    between atoms: _373  and  _375
REMARK  146  A    between atoms: _375  and  _376
REMARK  147  A    between atoms: _375  and  _378
REMARK  148  A    between atoms: _378  and  _379
REMARK  149  A    between atoms: _379  and  _380
REMARK  150  A    between atoms: _380  and  _381
REMARK  151  A    between atoms: _381  and  _382
REMARK  152  A    between atoms: _386  and  _388
REMARK  153  A    between atoms: _388  and  _389
REMARK  154  A    between atoms: _388  and  _391
REMARK  155  A    between atoms: _391  and  _392
REMARK  156  A    between atoms: _397  and  _398
REMARK  157  A    between atoms: _400  and  _402
REMARK  158  A    between atoms: _402  and  _403
REMARK  159  A    between atoms: _402  and  _405
REMARK  160  A    between atoms: _405  and  _406
REMARK  161  A    between atoms: _408  and  _410
REMARK  162  A    between atoms: _410  and  _411
REMARK  163  A    between atoms: _414  and  _416
REMARK  164  A    between atoms: _416  and  _417
REMARK  165  A    between atoms: _416  and  _419
REMARK  166  A    between atoms: _419  and  _420
REMARK  167  A    between atoms: _423  and  _425
REMARK  168  A    between atoms: _425  and  _426
REMARK  169  A    between atoms: _425  and  _428
REMARK  170  A    between atoms: _428  and  _429
REMARK  171  A    between atoms: _439  and  _441
REMARK  172  A    between atoms: _441  and  _442
REMARK  173  A    between atoms: _441  and  _444
REMARK  174  A    between atoms: _444  and  _445
REMARK  175  A    between atoms: _445  and  _446
REMARK  176  A    between atoms: _451  and  _453
REMARK  177  A    between atoms: _453  and  _454
REMARK  178  A    between atoms: _453  and  _456
REMARK  179  A    between atoms: _459  and  _461
REMARK  180  A    between atoms: _461  and  _462
REMARK  181  A    between atoms: _461  and  _464
REMARK  182  A    between atoms: _464  and  _465
REMARK  183  A    between atoms: _468  and  _470
REMARK  184  A    between atoms: _470  and  _471
REMARK  185  A    between atoms: _474  and  _476
REMARK  186  A    between atoms: _476  and  _477
REMARK  187  A    between atoms: _476  and  _479
REMARK  188  A    between atoms: _482  and  _484
REMARK  189  A    between atoms: _484  and  _485
REMARK  190  A    between atoms: _484  and  _487
REMARK  191  A    between atoms: _487  and  _488
REMARK  192  A    between atoms: _494  and  _496
REMARK  193  A    between atoms: _496  and  _497
REMARK  194  A    between atoms: _496  and  _499
REMARK  195  A    between atoms: _499  and  _500
REMARK  196  A    between atoms: _502  and  _504
REMARK  197  A    between atoms: _504  and  _505
REMARK  198  A    between atoms: _504  and  _507
REMARK  199  A    between atoms: _507  and  _508
REMARK  200  A    between atoms: _513  and  _515
REMARK  201  A    between atoms: _515  and  _516
REMARK  202  A    between atoms: _515  and  _518
REMARK  203  A    between atoms: _518  and  _519
REMARK  204  A    between atoms: _529  and  _531
REMARK  205  A    between atoms: _531  and  _532
REMARK  206  A    between atoms: _531  and  _534
REMARK  207  A    between atoms: _534  and  _535
REMARK  208  A    between atoms: _538  and  _540
REMARK  209  A    between atoms: _540  and  _541
REMARK  210  A    between atoms: _540  and  _543
REMARK  211  A    between atoms: _543  and  _544
REMARK  212  A    between atoms: _549  and  _550
REMARK  213  A    between atoms: _552  and  _554
REMARK  214  A    between atoms: _554  and  _555
REMARK  215  A    between atoms: _554  and  _557
REMARK  216  A    between atoms: _557  and  _558
REMARK  217  A    between atoms: _561  and  _563
REMARK  218  A    between atoms: _563  and  _564
REMARK  219  A    between atoms: _563  and  _566
REMARK  220  A    between atoms: _566  and  _567
REMARK  221  A    between atoms: _567  and  _568
REMARK  222  A    between atoms: _571  and  _573
REMARK  223  A    between atoms: _573  and  _574
REMARK  224  A    between atoms: _573  and  _576
REMARK  225  A    between atoms: _576  and  _577
REMARK  226  A    between atoms: _582  and  _584
REMARK  227  A    between atoms: _584  and  _585
REMARK  228  A    between atoms: _587  and  _589
REMARK  229  A    between atoms: _589  and  _590
REMARK  230  A    between atoms: _589  and  _592
REMARK  231  A    between atoms: _592  and  _593
REMARK  232  A    between atoms: _593  and  _594
REMARK  233  A    between atoms: _596  and  _598
REMARK  234  A    between atoms: _598  and  _599
REMARK  235  A    between atoms: _598  and  _601
REMARK  236  A    between atoms: _601  and  _602
REMARK  237  A    between atoms: _605  and  _607
REMARK  238  A    between atoms: _607  and  _608
REMARK  239  A    between atoms: _607  and  _610
REMARK  240  A    between atoms: _610  and  _611
REMARK  241  A    between atoms: _621  and  _623
REMARK  242  A    between atoms: _623  and  _624
REMARK  243  A    between atoms: _623  and  _626
REMARK  244  A    between atoms: _626  and  _627
REMARK  245  A    between atoms: _629  and  _631
REMARK  246  A    between atoms: _631  and  _632
REMARK  247  A    between atoms: _631  and  _634
REMARK  248  A    between atoms: _634  and  _635
REMARK  249  A    between atoms: _640  and  _642
REMARK  250  A    between atoms: _642  and  _643
REMARK  251  A    between atoms: _642  and  _645
REMARK  252  A    between atoms: _645  and  _646
REMARK  253  A    between atoms: _652  and  _654
REMARK  254  A    between atoms: _654  and  _655
REMARK  255  A    between atoms: _654  and  _657
REMARK  256  A    between atoms: _657  and  _658
REMARK  257  A    between atoms: _658  and  _659
REMARK  258  A    between atoms: _662  and  _664
REMARK  259  A    between atoms: _664  and  _665
REMARK  260  A    between atoms: _664  and  _667
REMARK  261  A    between atoms: _667  and  _668
REMARK  262  A    between atoms: _678  and  _680
REMARK  263  A    between atoms: _680  and  _681
REMARK  264  A    between atoms: _680  and  _683
REMARK  265  A    between atoms: _683  and  _684
REMARK  266  A    between atoms: _687  and  _689
REMARK  267  A    between atoms: _689  and  _690
REMARK  268  A    between atoms: _689  and  _692
REMARK  269  A    between atoms: _692  and  _693
REMARK  270  A    between atoms: _695  and  _697
REMARK  271  A    between atoms: _697  and  _698
REMARK  272  A    between atoms: _697  and  _700
REMARK  273  A    between atoms: _700  and  _701
REMARK  274  A    between atoms: _703  and  _705
REMARK  275  A    between atoms: _705  and  _706
REMARK  276  A    between atoms: _705  and  _708
REMARK  277  A    between atoms: _708  and  _709
REMARK                            x       y       z     vdW  Elec       q    Type
REMARK                         _______ _______ _______ _____ _____    ______ ____
ROOT
ATOM      1  O   HOH     1      -1.673  -9.086  50.826  0.00  0.00    +0.000 OA
ENDROOT
TORSDOF 0
REMARK  Name = ../refined-set-2016/4qll/4qll_pocket.pdb
REMARK  277 active torsions:
REMARK  status: ('A' for Active; 'I' for Inactive)
REMARK    1  A    between atoms: _1  and  _3
REMARK    2  A    between atoms: _3  and  _4
REMARK    3  A    between atoms: _3  and  _6
REMARK    4  A    between atoms: _9  and  _11
REMARK    5  A    between atoms: _11  and  _12
REMARK    6  A    between atoms: _11  and  _14
REMARK    7  A    between atoms: _14  and  _15
REMARK    8  A    between atoms: _18  and  _20
REMARK    9  A    between atoms: _20  and  _21
REMARK   10  A    between atoms: _20  and  _23
REMARK   11  A    between atoms: _23  and  _24
REMARK   12  A    between atoms: _26  and  _28
REMARK   13  A    between atoms: _28  and  _29
REMARK   14  A    between atoms: _28  and  _31
REMARK   15  A    between atoms: _31  and  _32
REMARK   16  A    between atoms: _32  and  _33
REMARK   17  A    between atoms: _38  and  _40
REMARK   18  A    between atoms: _40  and  _41
REMARK   19  A    between atoms: _40  and  _43
REMARK   20  A    between atoms: _43  and  _44
REMARK   21  A    between atoms: _44  and  _45
REMARK   22  A    between atoms: _45  and  _46
REMARK   23  A    between atoms: _55  and  _57
REMARK   24  A    between atoms: _57  and  _58
REMARK   25  A    between atoms: _57  and  _60
REMARK   26  A    between atoms: _60  and  _61
REMARK   27  A    between atoms: _66  and  _68
REMARK   28  A    between atoms: _68  and  _69
REMARK   29  A    between atoms: _68  and  _71
REMARK   30  A    between atoms: _71  and  _72
REMARK   31  A    between atoms: _77  and  _78
REMARK   32  A    between atoms: _80  and  _82
REMARK   33  A    between atoms: _82  and  _83
REMARK   34  A    between atoms: _82  and  _85
REMARK   35  A    between atoms: _85  and  _86
REMARK   36  A    between atoms: _91  and  _93
REMARK   37  A    between atoms: _93  and  _94
REMARK   38  A    between atoms: _93  and  _96
REMARK   39  A    between atoms: _96  and  _97
REMARK   40  A    between atoms: _97  and  _98
REMARK   41  A    between atoms: _103  and  _105
REMARK   42  A    between atoms: _105  and  _106
REMARK   43  A    between atoms: _105  and  _108
REMARK   44  A    between atoms: _108  and  _109
REMARK   45  A    between atoms: _109  and  _110
REMARK   46  A    between atoms: _110  and  _111
REMARK   47  A    between atoms: _120  and  _122
REMARK   48  A    between atoms: _122  and  _123
REMARK   49  A    between atoms: _122  and  _125
REMARK   50  A    between atoms: _125  and  _126
REMARK   51  A    between atoms: _129  and  _131
REMARK   52  A    between atoms: _131  and  _132
REMARK   53  A    between atoms: _131  and  _134
REMARK   54  A    between atoms: _134  and  _135
REMARK   55  A    between atoms: _138  and  _140
REMARK   56  A    between atoms: _140  and  _141
REMARK   57  A    between atoms: _140  and  _143
REMARK   58  A    between atoms: _143  and  _144
REMARK   59  A    between atoms: _147  and  _149
REMARK   60  A    between atoms: _149  and  _150
REMARK   61  A    between atoms: _149  and  _152
REMARK   62  A    between atoms: _152  and  _153
REMARK   63  A    between atoms: _156  and  _158
REMARK   64  A    between atoms: _158  and  _159
REMARK   65  A    between atoms: _162  and  _164
REMARK   66  A    between atoms: _164  and  _165
REMARK   67  A    between atoms: _164  and  _167
REMARK   68  A    between atoms: _167  and  _168
REMARK   69  A    between atoms: _171  and  _173
REMARK   70  A    between atoms: _173  and  _174
REMARK   71  A    between atoms: _173  and  _176
REMARK   72  A    between atoms: _176  and  _177
REMARK   73  A    between atoms: _182  and  _184
REMARK   74  A    between atoms: _184  and  _185
REMARK   75  A    between atoms: _184  and  _187
REMARK   76  A    between atoms: _190  and  _192
REMARK   77  A    between atoms: _192  and  _193
REMARK   78  A    between atoms: _192  and  _195
REMARK   79  A    between atoms: _195  and  _196
REMARK   80  A    between atoms: _199  and  _201
REMARK   81  A    between atoms: _201  and  _202
REMARK   82  A    between atoms: _201  and  _204
REMARK   83  A    between atoms: _204  and  _205
REMARK   84  A    between atoms: _208  and  _210
REMARK   85  A    between atoms: _210  and  _211
REMARK   86  A    between atoms: _210  and  _213
REMARK   87  A    between atoms: _213  and  _214
REMARK   88  A    between atoms: _220  and  _222
REMARK   89  A    between atoms: _222  and  _223
REMARK   90  A    between atoms: _222  and  _225
REMARK   91  A    between atoms: _225  and  _226
REMARK   92  A    between atoms: _231  and  _233
REMARK   93  A    between atoms: _233  and  _234
REMARK   94  A    between atoms: _233  and  _236
REMARK   95  A    between atoms: _236  and  _237
REMARK   96  A    between atoms: _247  and  _249
REMARK   97  A    between atoms: _249  and  _250
REMARK   98  A    between atoms: _249  and  _252
REMARK   99  A    between atoms: _252  and  _253
REMARK  100  A    between atoms: _258  and  _259
REMARK  101  A    between atoms: _261  and  _263
REMARK  102  A    between atoms: _263  and  _264
REMARK  103  A    between atoms: _267  and  _269
REMARK  104  A    between atoms: _269  and  _270
REMARK  105  A    between atoms: _269  and  _272
REMARK  106  A    between atoms: _272  and  _273
REMARK  107  A    between atoms: _279  and  _281
REMARK  108  A    between atoms: _281  and  _282
REMARK  109  A    between atoms: _281  and  _284
REMARK  110  A    between atoms: _284  and  _285
REMARK  111  A    between atoms: _290  and  _292
REMARK  112  A    between atoms: _292  and  _293
REMARK  113  A    between atoms: _292  and  _295
REMARK  114  A    between atoms: _295  and  _296
REMARK  115  A    between atoms: _301  and  _303
REMARK  116  A    between atoms: _303  and  _304
REMARK  117  A    between atoms: _303  and  _306
REMARK  118  A    between atoms: _306  and  _307
REMARK  119  A    between atoms: _307  and  _308
REMARK  120  A    between atoms: _313  and  _315
REMARK  121  A    between atoms: _315  and  _316
REMARK  122  A    between atoms: _315  and  _318
REMARK  123  A    between atoms: _318  and  _319
REMARK  124  A    between atoms: _324  and  _325
REMARK  125  A    between atoms: _327  and  _329
REMARK  126  A    between atoms: _329  and  _330
REMARK  127  A    between atoms: _329  and  _332
REMARK  128  A    between atoms: _332  and  _333
REMARK  129  A    between atoms: _336  and  _338
REMARK  130  A    between atoms: _338  and  _339
REMARK  131  A    between atoms: _342  and  _344
REMARK  132  A    between atoms: _344  and  _345
REMARK  133  A    between atoms: _344  and  _347
REMARK  134  A    between atoms: _347  and  _348
REMARK  135  A    between atoms: _350  and  _352
REMARK  136  A    between atoms: _352  and  _353
REMARK  137  A    between atoms: _352  and  _355
REMARK  138  A    between atoms: _355  and  _356
REMARK  139  A    between atoms: _361  and  _362
REMARK  140  A    between atoms: _364  and  _366
REMARK  141  A    between atoms: _366  and  _367
REMARK  142  A    between atoms: _366  and  _369
REMARK  143  A    between atoms: _369  and  _370
REMARK  144  A    between atoms: _370  and  _371
REMARK  145  A    between atoms: _373  and  _375
REMARK  146  A    between atoms: _375  and  _376
REMARK  147  A    between atoms: _375  and  _378
REMARK  148  A    between atoms: _378  and  _379
REMARK  149  A    between atoms: _379  and  _380
REMARK  150  A    between atoms: _380  and  _381
REMARK  151  A    between atoms: _381  and  _382
REMARK  152  A    between atoms: _386  and  _388
REMARK  153  A    between atoms: _388  and  _389
REMARK  154  A    between atoms: _388  and  _391
REMARK  155  A    between atoms: _391  and  _392
REMARK  156  A    between atoms: _397  and  _398
REMARK  157  A    between atoms: _400  and  _402
REMARK  158  A    between atoms: _402  and  _403
REMARK  159  A    between atoms: _402  and  _405
REMARK  160  A    between atoms: _405  and  _406
REMARK  161  A    between atoms: _408  and  _410
REMARK  162  A    between atoms: _410  and  _411
REMARK  163  A    between atoms: _414  and  _416
REMARK  164  A    between atoms: _416  and  _417
REMARK  165  A    between atoms: _416  and  _419
REMARK  166  A    between atoms: _419  and  _420
REMARK  167  A    between atoms: _423  and  _425
REMARK  168  A    between atoms: _425  and  _426
REMARK  169  A    between atoms: _425  and  _428
REMARK  170  A    between atoms: _428  and  _429
REMARK  171  A    between atoms: _439  and  _441
REMARK  172  A    between atoms: _441  and  _442
REMARK  173  A    between atoms: _441  and  _444
REMARK  174  A    between atoms: _444  and  _445
REMARK  175  A    between atoms: _445  and  _446
REMARK  176  A    between atoms: _451  and  _453
REMARK  177  A    between atoms: _453  and  _454
REMARK  178  A    between atoms: _453  and  _456
REMARK  179  A    between atoms: _459  and  _461
REMARK  180  A    between atoms: _461  and  _462
REMARK  181  A    between atoms: _461  and  _464
REMARK  182  A    between atoms: _464  and  _465
REMARK  183  A    between atoms: _468  and  _470
REMARK  184  A    between atoms: _470  and  _471
REMARK  185  A    between atoms: _474  and  _476
REMARK  186  A    between atoms: _476  and  _477
REMARK  187  A    between atoms: _476  and  _479
REMARK  188  A    between atoms: _482  and  _484
REMARK  189  A    between atoms: _484  and  _485
REMARK  190  A    between atoms: _484  and  _487
REMARK  191  A    between atoms: _487  and  _488
REMARK  192  A    between atoms: _494  and  _496
REMARK  193  A    between atoms: _496  and  _497
REMARK  194  A    between atoms: _496  and  _499
REMARK  195  A    between atoms: _499  and  _500
REMARK  196  A    between atoms: _502  and  _504
REMARK  197  A    between atoms: _504  and  _505
REMARK  198  A    between atoms: _504  and  _507
REMARK  199  A    between atoms: _507  and  _508
REMARK  200  A    between atoms: _513  and  _515
REMARK  201  A    between atoms: _515  and  _516
REMARK  202  A    between atoms: _515  and  _518
REMARK  203  A    between atoms: _518  and  _519
REMARK  204  A    between atoms: _529  and  _531
REMARK  205  A    between atoms: _531  and  _532
REMARK  206  A    between atoms: _531  and  _534
REMARK  207  A    between atoms: _534  and  _535
REMARK  208  A    between atoms: _538  and  _540
REMARK  209  A    between atoms: _540  and  _541
REMARK  210  A    between atoms: _540  and  _543
REMARK  211  A    between atoms: _543  and  _544
REMARK  212  A    between atoms: _549  and  _550
REMARK  213  A    between atoms: _552  and  _554
REMARK  214  A    between atoms: _554  and  _555
REMARK  215  A    between atoms: _554  and  _557
REMARK  216  A    between atoms: _557  and  _558
REMARK  217  A    between atoms: _561  and  _563
REMARK  218  A    between atoms: _563  and  _564
REMARK  219  A    between atoms: _563  and  _566
REMARK  220  A    between atoms: _566  and  _567
REMARK  221  A    between atoms: _567  and  _568
REMARK  222  A    between atoms: _571  and  _573
REMARK  223  A    between atoms: _573  and  _574
REMARK  224  A    between atoms: _573  and  _576
REMARK  225  A    between atoms: _576  and  _577
REMARK  226  A    between atoms: _582  and  _584
REMARK  227  A    between atoms: _584  and  _585
REMARK  228  A    between atoms: _587  and  _589
REMARK  229  A    between atoms: _589  and  _590
REMARK  230  A    between atoms: _589  and  _592
REMARK  231  A    between atoms: _592  and  _593
REMARK  232  A    between atoms: _593  and  _594
REMARK  233  A    between atoms: _596  and  _598
REMARK  234  A    between atoms: _598  and  _599
REMARK  235  A    between atoms: _598  and  _601
REMARK  236  A    between atoms: _601  and  _602
REMARK  237  A    between atoms: _605  and  _607
REMARK  238  A    between atoms: _607  and  _608
REMARK  239  A    between atoms: _607  and  _610
REMARK  240  A    between atoms: _610  and  _611
REMARK  241  A    between atoms: _621  and  _623
REMARK  242  A    between atoms: _623  and  _624
REMARK  243  A    between atoms: _623  and  _626
REMARK  244  A    between atoms: _626  and  _627
REMARK  245  A    between atoms: _629  and  _631
REMARK  246  A    between atoms: _631  and  _632
REMARK  247  A    between atoms: _631  and  _634
REMARK  248  A    between atoms: _634  and  _635
REMARK  249  A    between atoms: _640  and  _642
REMARK  250  A    between atoms: _642  and  _643
REMARK  251  A    between atoms: _642  and  _645
REMARK  252  A    between atoms: _645  and  _646
REMARK  253  A    between atoms: _652  and  _654
REMARK  254  A    between atoms: _654  and  _655
REMARK  255  A    between atoms: _654  and  _657
REMARK  256  A    between atoms: _657  and  _658
REMARK  257  A    between atoms: _658  and  _659
REMARK  258  A    between atoms: _662  and  _664
REMARK  259  A    between atoms: _664  and  _665
REMARK  260  A    between atoms: _664  and  _667
REMARK  261  A    between atoms: _667  and  _668
REMARK  262  A    between atoms: _678  and  _680
REMARK  263  A    between atoms: _680  and  _681
REMARK  264  A    between atoms: _680  and  _683
REMARK  265  A    between atoms: _683  and  _684
REMARK  266  A    between atoms: _687  and  _689
REMARK  267  A    between atoms: _689  and  _690
REMARK  268  A    between atoms: _689  and  _692
REMARK  269  A    between atoms: _692  and  _693
REMARK  270  A    between atoms: _695  and  _697
REMARK  271  A    between atoms: _697  and  _698
REMARK  272  A    between atoms: _697  and  _700
REMARK  273  A    between atoms: _700  and  _701
REMARK  274  A    between atoms: _703  and  _705
REMARK  275  A    between atoms: _705  and  _706
REMARK  276  A    between atoms: _705  and  _708
REMARK  277  A    between atoms: _708  and  _709
REMARK                            x       y       z     vdW  Elec       q    Type
REMARK                         _______ _______ _______ _____ _____    ______ ____
ROOT
ATOM      1  O   HOH     1      -1.304  -0.890  49.206  0.00  0.00    +0.000 OA
ENDROOT
TORSDOF 0
REMARK  Name = ../refined-set-2016/4qll/4qll_pocket.pdb
REMARK  277 active torsions:
REMARK  status: ('A' for Active; 'I' for Inactive)
REMARK    1  A    between atoms: _1  and  _3
REMARK    2  A    between atoms: _3  and  _4
REMARK    3  A    between atoms: _3  and  _6
REMARK    4  A    between atoms: _9  and  _11
REMARK    5  A    between atoms: _11  and  _12
REMARK    6  A    between atoms: _11  and  _14
REMARK    7  A    between atoms: _14  and  _15
REMARK    8  A    between atoms: _18  and  _20
REMARK    9  A    between atoms: _20  and  _21
REMARK   10  A    between atoms: _20  and  _23
REMARK   11  A    between atoms: _23  and  _24
REMARK   12  A    between atoms: _26  and  _28
REMARK   13  A    between atoms: _28  and  _29
REMARK   14  A    between atoms: _28  and  _31
REMARK   15  A    between atoms: _31  and  _32
REMARK   16  A    between atoms: _32  and  _33
REMARK   17  A    between atoms: _38  and  _40
REMARK   18  A    between atoms: _40  and  _41
REMARK   19  A    between atoms: _40  and  _43
REMARK   20  A    between atoms: _43  and  _44
REMARK   21  A    between atoms: _44  and  _45
REMARK   22  A    between atoms: _45  and  _46
REMARK   23  A    between atoms: _55  and  _57
REMARK   24  A    between atoms: _57  and  _58
REMARK   25  A    between atoms: _57  and  _60
REMARK   26  A    between atoms: _60  and  _61
REMARK   27  A    between atoms: _66  and  _68
REMARK   28  A    between atoms: _68  and  _69
REMARK   29  A    between atoms: _68  and  _71
REMARK   30  A    between atoms: _71  and  _72
REMARK   31  A    between atoms: _77  and  _78
REMARK   32  A    between atoms: _80  and  _82
REMARK   33  A    between atoms: _82  and  _83
REMARK   34  A    between atoms: _82  and  _85
REMARK   35  A    between atoms: _85  and  _86
REMARK   36  A    between atoms: _91  and  _93
REMARK   37  A    between atoms: _93  and  _94
REMARK   38  A    between atoms: _93  and  _96
REMARK   39  A    between atoms: _96  and  _97
REMARK   40  A    between atoms: _97  and  _98
REMARK   41  A    between atoms: _103  and  _105
REMARK   42  A    between atoms: _105  and  _106
REMARK   43  A    between atoms: _105  and  _108
REMARK   44  A    between atoms: _108  and  _109
REMARK   45  A    between atoms: _109  and  _110
REMARK   46  A    between atoms: _110  and  _111
REMARK   47  A    between atoms: _120  and  _122
REMARK   48  A    between atoms: _122  and  _123
REMARK   49  A    between atoms: _122  and  _125
REMARK   50  A    between atoms: _125  and  _126
REMARK   51  A    between atoms: _129  and  _131
REMARK   52  A    between atoms: _131  and  _132
REMARK   53  A    between atoms: _131  and  _134
REMARK   54  A    between atoms: _134  and  _135
REMARK   55  A    between atoms: _138  and  _140
REMARK   56  A    between atoms: _140  and  _141
REMARK   57  A    between atoms: _140  and  _143
REMARK   58  A    between atoms: _143  and  _144
REMARK   59  A    between atoms: _147  and  _149
REMARK   60  A    between atoms: _149  and  _150
REMARK   61  A    between atoms: _149  and  _152
REMARK   62  A    between atoms: _152  and  _153
REMARK   63  A    between atoms: _156  and  _158
REMARK   64  A    between atoms: _158  and  _159
REMARK   65  A    between atoms: _162  and  _164
REMARK   66  A    between atoms: _164  and  _165
REMARK   67  A    between atoms: _164  and  _167
REMARK   68  A    between atoms: _167  and  _168
REMARK   69  A    between atoms: _171  and  _173
REMARK   70  A    between atoms: _173  and  _174
REMARK   71  A    between atoms: _173  and  _176
REMARK   72  A    between atoms: _176  and  _177
REMARK   73  A    between atoms: _182  and  _184
REMARK   74  A    between atoms: _184  and  _185
REMARK   75  A    between atoms: _184  and  _187
REMARK   76  A    between atoms: _190  and  _192
REMARK   77  A    between atoms: _192  and  _193
REMARK   78  A    between atoms: _192  and  _195
REMARK   79  A    between atoms: _195  and  _196
REMARK   80  A    between atoms: _199  and  _201
REMARK   81  A    between atoms: _201  and  _202
REMARK   82  A    between atoms: _201  and  _204
REMARK   83  A    between atoms: _204  and  _205
REMARK   84  A    between atoms: _208  and  _210
REMARK   85  A    between atoms: _210  and  _211
REMARK   86  A    between atoms: _210  and  _213
REMARK   87  A    between atoms: _213  and  _214
REMARK   88  A    between atoms: _220  and  _222
REMARK   89  A    between atoms: _222  and  _223
REMARK   90  A    between atoms: _222  and  _225
REMARK   91  A    between atoms: _225  and  _226
REMARK   92  A    between atoms: _231  and  _233
REMARK   93  A    between atoms: _233  and  _234
REMARK   94  A    between atoms: _233  and  _236
REMARK   95  A    between atoms: _236  and  _237
REMARK   96  A    between atoms: _247  and  _249
REMARK   97  A    between atoms: _249  and  _250
REMARK   98  A    between atoms: _249  and  _252
REMARK   99  A    between atoms: _252  and  _253
REMARK  100  A    between atoms: _258  and  _259
REMARK  101  A    between atoms: _261  and  _263
REMARK  102  A    between atoms: _263  and  _264
REMARK  103  A    between atoms: _267  and  _269
REMARK  104  A    between atoms: _269  and  _270
REMARK  105  A    between atoms: _269  and  _272
REMARK  106  A    between atoms: _272  and  _273
REMARK  107  A    between atoms: _279  and  _281
REMARK  108  A    between atoms: _281  and  _282
REMARK  109  A    between atoms: _281  and  _284
REMARK  110  A    between atoms: _284  and  _285
REMARK  111  A    between atoms: _290  and  _292
REMARK  112  A    between atoms: _292  and  _293
REMARK  113  A    between atoms: _292  and  _295
REMARK  114  A    between atoms: _295  and  _296
REMARK  115  A    between atoms: _301  and  _303
REMARK  116  A    between atoms: _303  and  _304
REMARK  117  A    between atoms: _303  and  _306
REMARK  118  A    between atoms: _306  and  _307
REMARK  119  A    between atoms: _307  and  _308
REMARK  120  A    between atoms: _313  and  _315
REMARK  121  A    between atoms: _315  and  _316
REMARK  122  A    between atoms: _315  and  _318
REMARK  123  A    between atoms: _318  and  _319
REMARK  124  A    between atoms: _324  and  _325
REMARK  125  A    between atoms: _327  and  _329
REMARK  126  A    between atoms: _329  and  _330
REMARK  127  A    between atoms: _329  and  _332
REMARK  128  A    between atoms: _332  and  _333
REMARK  129  A    between atoms: _336  and  _338
REMARK  130  A    between atoms: _338  and  _339
REMARK  131  A    between atoms: _342  and  _344
REMARK  132  A    between atoms: _344  and  _345
REMARK  133  A    between atoms: _344  and  _347
REMARK  134  A    between atoms: _347  and  _348
REMARK  135  A    between atoms: _350  and  _352
REMARK  136  A    between atoms: _352  and  _353
REMARK  137  A    between atoms: _352  and  _355
REMARK  138  A    between atoms: _355  and  _356
REMARK  139  A    between atoms: _361  and  _362
REMARK  140  A    between atoms: _364  and  _366
REMARK  141  A    between atoms: _366  and  _367
REMARK  142  A    between atoms: _366  and  _369
REMARK  143  A    between atoms: _369  and  _370
REMARK  144  A    between atoms: _370  and  _371
REMARK  145  A    between atoms: _373  and  _375
REMARK  146  A    between atoms: _375  and  _376
REMARK  147  A    between atoms: _375  and  _378
REMARK  148  A    between atoms: _378  and  _379
REMARK  149  A    between atoms: _379  and  _380
REMARK  150  A    between atoms: _380  and  _381
REMARK  151  A    between atoms: _381  and  _382
REMARK  152  A    between atoms: _386  and  _388
REMARK  153  A    between atoms: _388  and  _389
REMARK  154  A    between atoms: _388  and  _391
REMARK  155  A    between atoms: _391  and  _392
REMARK  156  A    between atoms: _397  and  _398
REMARK  157  A    between atoms: _400  and  _402
REMARK  158  A    between atoms: _402  and  _403
REMARK  159  A    between atoms: _402  and  _405
REMARK  160  A    between atoms: _405  and  _406
REMARK  161  A    between atoms: _408  and  _410
REMARK  162  A    between atoms: _410  and  _411
REMARK  163  A    between atoms: _414  and  _416
REMARK  164  A    between atoms: _416  and  _417
REMARK  165  A    between atoms: _416  and  _419
REMARK  166  A    between atoms: _419  and  _420
REMARK  167  A    between atoms: _423  and  _425
REMARK  168  A    between atoms: _425  and  _426
REMARK  169  A    between atoms: _425  and  _428
REMARK  170  A    between atoms: _428  and  _429
REMARK  171  A    between atoms: _439  and  _441
REMARK  172  A    between atoms: _441  and  _442
REMARK  173  A    between atoms: _441  and  _444
REMARK  174  A    between atoms: _444  and  _445
REMARK  175  A    between atoms: _445  and  _446
REMARK  176  A    between atoms: _451  and  _453
REMARK  177  A    between atoms: _453  and  _454
REMARK  178  A    between atoms: _453  and  _456
REMARK  179  A    between atoms: _459  and  _461
REMARK  180  A    between atoms: _461  and  _462
REMARK  181  A    between atoms: _461  and  _464
REMARK  182  A    between atoms: _464  and  _465
REMARK  183  A    between atoms: _468  and  _470
REMARK  184  A    between atoms: _470  and  _471
REMARK  185  A    between atoms: _474  and  _476
REMARK  186  A    between atoms: _476  and  _477
REMARK  187  A    between atoms: _476  and  _479
REMARK  188  A    between atoms: _482  and  _484
REMARK  189  A    between atoms: _484  and  _485
REMARK  190  A    between atoms: _484  and  _487
REMARK  191  A    between atoms: _487  and  _488
REMARK  192  A    between atoms: _494  and  _496
REMARK  193  A    between atoms: _496  and  _497
REMARK  194  A    between atoms: _496  and  _499
REMARK  195  A    between atoms: _499  and  _500
REMARK  196  A    between atoms: _502  and  _504
REMARK  197  A    between atoms: _504  and  _505
REMARK  198  A    between atoms: _504  and  _507
REMARK  199  A    between atoms: _507  and  _508
REMARK  200  A    between atoms: _513  and  _515
REMARK  201  A    between atoms: _515  and  _516
REMARK  202  A    between atoms: _515  and  _518
REMARK  203  A    between atoms: _518  and  _519
REMARK  204  A    between atoms: _529  and  _531
REMARK  205  A    between atoms: _531  and  _532
REMARK  206  A    between atoms: _531  and  _534
REMARK  207  A    between atoms: _534  and  _535
REMARK  208  A    between atoms: _538  and  _540
REMARK  209  A    between atoms: _540  and  _541
REMARK  210  A    between atoms: _540  and  _543
REMARK  211  A    between atoms: _543  and  _544
REMARK  212  A    between atoms: _549  and  _550
REMARK  213  A    between atoms: _552  and  _554
REMARK  214  A    between atoms: _554  and  _555
REMARK  215  A    between atoms: _554  and  _557
REMARK  216  A    between atoms: _557  and  _558
REMARK  217  A    between atoms: _561  and  _563
REMARK  218  A    between atoms: _563  and  _564
REMARK  219  A    between atoms: _563  and  _566
REMARK  220  A    between atoms: _566  and  _567
REMARK  221  A    between atoms: _567  and  _568
REMARK  222  A    between atoms: _571  and  _573
REMARK  223  A    between atoms: _573  and  _574
REMARK  224  A    between atoms: _573  and  _576
REMARK  225  A    between atoms: _576  and  _577
REMARK  226  A    between atoms: _582  and  _584
REMARK  227  A    between atoms: _584  and  _585
REMARK  228  A    between atoms: _587  and  _589
REMARK  229  A    between atoms: _589  and  _590
REMARK  230  A    between atoms: _589  and  _592
REMARK  231  A    between atoms: _592  and  _593
REMARK  232  A    between atoms: _593  and  _594
REMARK  233  A    between atoms: _596  and  _598
REMARK  234  A    between atoms: _598  and  _599
REMARK  235  A    between atoms: _598  and  _601
REMARK  236  A    between atoms: _601  and  _602
REMARK  237  A    between atoms: _605  and  _607
REMARK  238  A    between atoms: _607  and  _608
REMARK  239  A    between atoms: _607  and  _610
REMARK  240  A    between atoms: _610  and  _611
REMARK  241  A    between atoms: _621  and  _623
REMARK  242  A    between atoms: _623  and  _624
REMARK  243  A    between atoms: _623  and  _626
REMARK  244  A    between atoms: _626  and  _627
REMARK  245  A    between atoms: _629  and  _631
REMARK  246  A    between atoms: _631  and  _632
REMARK  247  A    between atoms: _631  and  _634
REMARK  248  A    between atoms: _634  and  _635
REMARK  249  A    between atoms: _640  and  _642
REMARK  250  A    between atoms: _642  and  _643
REMARK  251  A    between atoms: _642  and  _645
REMARK  252  A    between atoms: _645  and  _646
REMARK  253  A    between atoms: _652  and  _654
REMARK  254  A    between atoms: _654  and  _655
REMARK  255  A    between atoms: _654  and  _657
REMARK  256  A    between atoms: _657  and  _658
REMARK  257  A    between atoms: _658  and  _659
REMARK  258  A    between atoms: _662  and  _664
REMARK  259  A    between atoms: _664  and  _665
REMARK  260  A    between atoms: _664  and  _667
REMARK  261  A    between atoms: _667  and  _668
REMARK  262  A    between atoms: _678  and  _680
REMARK  263  A    between atoms: _680  and  _681
REMARK  264  A    between atoms: _680  and  _683
REMARK  265  A    between atoms: _683  and  _684
REMARK  266  A    between atoms: _687  and  _689
REMARK  267  A    between atoms: _689  and  _690
REMARK  268  A    between atoms: _689  and  _692
REMARK  269  A    between atoms: _692  and  _693
REMARK  270  A    between atoms: _695  and  _697
REMARK  271  A    between atoms: _697  and  _698
REMARK  272  A    between atoms: _697  and  _700
REMARK  273  A    between atoms: _700  and  _701
REMARK  274  A    between atoms: _703  and  _705
REMARK  275  A    between atoms: _705  and  _706
REMARK  276  A    between atoms: _705  and  _708
REMARK  277  A    between atoms: _708  and  _709
REMARK                            x       y       z     vdW  Elec       q    Type
REMARK                         _______ _______ _______ _____ _____    ______ ____
ROOT
ATOM      1  O   HOH     1      -1.956  -0.458  43.179  0.00  0.00    +0.000 OA
ENDROOT
TORSDOF 0
REMARK  Name = ../refined-set-2016/4qll/4qll_pocket.pdb
REMARK  277 active torsions:
REMARK  status: ('A' for Active; 'I' for Inactive)
REMARK    1  A    between atoms: _1  and  _3
REMARK    2  A    between atoms: _3  and  _4
REMARK    3  A    between atoms: _3  and  _6
REMARK    4  A    between atoms: _9  and  _11
REMARK    5  A    between atoms: _11  and  _12
REMARK    6  A    between atoms: _11  and  _14
REMARK    7  A    between atoms: _14  and  _15
REMARK    8  A    between atoms: _18  and  _20
REMARK    9  A    between atoms: _20  and  _21
REMARK   10  A    between atoms: _20  and  _23
REMARK   11  A    between atoms: _23  and  _24
REMARK   12  A    between atoms: _26  and  _28
REMARK   13  A    between atoms: _28  and  _29
REMARK   14  A    between atoms: _28  and  _31
REMARK   15  A    between atoms: _31  and  _32
REMARK   16  A    between atoms: _32  and  _33
REMARK   17  A    between atoms: _38  and  _40
REMARK   18  A    between atoms: _40  and  _41
REMARK   19  A    between atoms: _40  and  _43
REMARK   20  A    between atoms: _43  and  _44
REMARK   21  A    between atoms: _44  and  _45
REMARK   22  A    between atoms: _45  and  _46
REMARK   23  A    between atoms: _55  and  _57
REMARK   24  A    between atoms: _57  and  _58
REMARK   25  A    between atoms: _57  and  _60
REMARK   26  A    between atoms: _60  and  _61
REMARK   27  A    between atoms: _66  and  _68
REMARK   28  A    between atoms: _68  and  _69
REMARK   29  A    between atoms: _68  and  _71
REMARK   30  A    between atoms: _71  and  _72
REMARK   31  A    between atoms: _77  and  _78
REMARK   32  A    between atoms: _80  and  _82
REMARK   33  A    between atoms: _82  and  _83
REMARK   34  A    between atoms: _82  and  _85
REMARK   35  A    between atoms: _85  and  _86
REMARK   36  A    between atoms: _91  and  _93
REMARK   37  A    between atoms: _93  and  _94
REMARK   38  A    between atoms: _93  and  _96
REMARK   39  A    between atoms: _96  and  _97
REMARK   40  A    between atoms: _97  and  _98
REMARK   41  A    between atoms: _103  and  _105
REMARK   42  A    between atoms: _105  and  _106
REMARK   43  A    between atoms: _105  and  _108
REMARK   44  A    between atoms: _108  and  _109
REMARK   45  A    between atoms: _109  and  _110
REMARK   46  A    between atoms: _110  and  _111
REMARK   47  A    between atoms: _120  and  _122
REMARK   48  A    between atoms: _122  and  _123
REMARK   49  A    between atoms: _122  and  _125
REMARK   50  A    between atoms: _125  and  _126
REMARK   51  A    between atoms: _129  and  _131
REMARK   52  A    between atoms: _131  and  _132
REMARK   53  A    between atoms: _131  and  _134
REMARK   54  A    between atoms: _134  and  _135
REMARK   55  A    between atoms: _138  and  _140
REMARK   56  A    between atoms: _140  and  _141
REMARK   57  A    between atoms: _140  and  _143
REMARK   58  A    between atoms: _143  and  _144
REMARK   59  A    between atoms: _147  and  _149
REMARK   60  A    between atoms: _149  and  _150
REMARK   61  A    between atoms: _149  and  _152
REMARK   62  A    between atoms: _152  and  _153
REMARK   63  A    between atoms: _156  and  _158
REMARK   64  A    between atoms: _158  and  _159
REMARK   65  A    between atoms: _162  and  _164
REMARK   66  A    between atoms: _164  and  _165
REMARK   67  A    between atoms: _164  and  _167
REMARK   68  A    between atoms: _167  and  _168
REMARK   69  A    between atoms: _171  and  _173
REMARK   70  A    between atoms: _173  and  _174
REMARK   71  A    between atoms: _173  and  _176
REMARK   72  A    between atoms: _176  and  _177
REMARK   73  A    between atoms: _182  and  _184
REMARK   74  A    between atoms: _184  and  _185
REMARK   75  A    between atoms: _184  and  _187
REMARK   76  A    between atoms: _190  and  _192
REMARK   77  A    between atoms: _192  and  _193
REMARK   78  A    between atoms: _192  and  _195
REMARK   79  A    between atoms: _195  and  _196
REMARK   80  A    between atoms: _199  and  _201
REMARK   81  A    between atoms: _201  and  _202
REMARK   82  A    between atoms: _201  and  _204
REMARK   83  A    between atoms: _204  and  _205
REMARK   84  A    between atoms: _208  and  _210
REMARK   85  A    between atoms: _210  and  _211
REMARK   86  A    between atoms: _210  and  _213
REMARK   87  A    between atoms: _213  and  _214
REMARK   88  A    between atoms: _220  and  _222
REMARK   89  A    between atoms: _222  and  _223
REMARK   90  A    between atoms: _222  and  _225
REMARK   91  A    between atoms: _225  and  _226
REMARK   92  A    between atoms: _231  and  _233
REMARK   93  A    between atoms: _233  and  _234
REMARK   94  A    between atoms: _233  and  _236
REMARK   95  A    between atoms: _236  and  _237
REMARK   96  A    between atoms: _247  and  _249
REMARK   97  A    between atoms: _249  and  _250
REMARK   98  A    between atoms: _249  and  _252
REMARK   99  A    between atoms: _252  and  _253
REMARK  100  A    between atoms: _258  and  _259
REMARK  101  A    between atoms: _261  and  _263
REMARK  102  A    between atoms: _263  and  _264
REMARK  103  A    between atoms: _267  and  _269
REMARK  104  A    between atoms: _269  and  _270
REMARK  105  A    between atoms: _269  and  _272
REMARK  106  A    between atoms: _272  and  _273
REMARK  107  A    between atoms: _279  and  _281
REMARK  108  A    between atoms: _281  and  _282
REMARK  109  A    between atoms: _281  and  _284
REMARK  110  A    between atoms: _284  and  _285
REMARK  111  A    between atoms: _290  and  _292
REMARK  112  A    between atoms: _292  and  _293
REMARK  113  A    between atoms: _292  and  _295
REMARK  114  A    between atoms: _295  and  _296
REMARK  115  A    between atoms: _301  and  _303
REMARK  116  A    between atoms: _303  and  _304
REMARK  117  A    between atoms: _303  and  _306
REMARK  118  A    between atoms: _306  and  _307
REMARK  119  A    between atoms: _307  and  _308
REMARK  120  A    between atoms: _313  and  _315
REMARK  121  A    between atoms: _315  and  _316
REMARK  122  A    between atoms: _315  and  _318
REMARK  123  A    between atoms: _318  and  _319
REMARK  124  A    between atoms: _324  and  _325
REMARK  125  A    between atoms: _327  and  _329
REMARK  126  A    between atoms: _329  and  _330
REMARK  127  A    between atoms: _329  and  _332
REMARK  128  A    between atoms: _332  and  _333
REMARK  129  A    between atoms: _336  and  _338
REMARK  130  A    between atoms: _338  and  _339
REMARK  131  A    between atoms: _342  and  _344
REMARK  132  A    between atoms: _344  and  _345
REMARK  133  A    between atoms: _344  and  _347
REMARK  134  A    between atoms: _347  and  _348
REMARK  135  A    between atoms: _350  and  _352
REMARK  136  A    between atoms: _352  and  _353
REMARK  137  A    between atoms: _352  and  _355
REMARK  138  A    between atoms: _355  and  _356
REMARK  139  A    between atoms: _361  and  _362
REMARK  140  A    between atoms: _364  and  _366
REMARK  141  A    between atoms: _366  and  _367
REMARK  142  A    between atoms: _366  and  _369
REMARK  143  A    between atoms: _369  and  _370
REMARK  144  A    between atoms: _370  and  _371
REMARK  145  A    between atoms: _373  and  _375
REMARK  146  A    between atoms: _375  and  _376
REMARK  147  A    between atoms: _375  and  _378
REMARK  148  A    between atoms: _378  and  _379
REMARK  149  A    between atoms: _379  and  _380
REMARK  150  A    between atoms: _380  and  _381
REMARK  151  A    between atoms: _381  and  _382
REMARK  152  A    between atoms: _386  and  _388
REMARK  153  A    between atoms: _388  and  _389
REMARK  154  A    between atoms: _388  and  _391
REMARK  155  A    between atoms: _391  and  _392
REMARK  156  A    between atoms: _397  and  _398
REMARK  157  A    between atoms: _400  and  _402
REMARK  158  A    between atoms: _402  and  _403
REMARK  159  A    between atoms: _402  and  _405
REMARK  160  A    between atoms: _405  and  _406
REMARK  161  A    between atoms: _408  and  _410
REMARK  162  A    between atoms: _410  and  _411
REMARK  163  A    between atoms: _414  and  _416
REMARK  164  A    between atoms: _416  and  _417
REMARK  165  A    between atoms: _416  and  _419
REMARK  166  A    between atoms: _419  and  _420
REMARK  167  A    between atoms: _423  and  _425
REMARK  168  A    between atoms: _425  and  _426
REMARK  169  A    between atoms: _425  and  _428
REMARK  170  A    between atoms: _428  and  _429
REMARK  171  A    between atoms: _439  and  _441
REMARK  172  A    between atoms: _441  and  _442
REMARK  173  A    between atoms: _441  and  _444
REMARK  174  A    between atoms: _444  and  _445
REMARK  175  A    between atoms: _445  and  _446
REMARK  176  A    between atoms: _451  and  _453
REMARK  177  A    between atoms: _453  and  _454
REMARK  178  A    between atoms: _453  and  _456
REMARK  179  A    between atoms: _459  and  _461
REMARK  180  A    between atoms: _461  and  _462
REMARK  181  A    between atoms: _461  and  _464
REMARK  182  A    between atoms: _464  and  _465
REMARK  183  A    between atoms: _468  and  _470
REMARK  184  A    between atoms: _470  and  _471
REMARK  185  A    between atoms: _474  and  _476
REMARK  186  A    between atoms: _476  and  _477
REMARK  187  A    between atoms: _476  and  _479
REMARK  188  A    between atoms: _482  and  _484
REMARK  189  A    between atoms: _484  and  _485
REMARK  190  A    between atoms: _484  and  _487
REMARK  191  A    between atoms: _487  and  _488
REMARK  192  A    between atoms: _494  and  _496
REMARK  193  A    between atoms: _496  and  _497
REMARK  194  A    between atoms: _496  and  _499
REMARK  195  A    between atoms: _499  and  _500
REMARK  196  A    between atoms: _502  and  _504
REMARK  197  A    between atoms: _504  and  _505
REMARK  198  A    between atoms: _504  and  _507
REMARK  199  A    between atoms: _507  and  _508
REMARK  200  A    between atoms: _513  and  _515
REMARK  201  A    between atoms: _515  and  _516
REMARK  202  A    between atoms: _515  and  _518
REMARK  203  A    between atoms: _518  and  _519
REMARK  204  A    between atoms: _529  and  _531
REMARK  205  A    between atoms: _531  and  _532
REMARK  206  A    between atoms: _531  and  _534
REMARK  207  A    between atoms: _534  and  _535
REMARK  208  A    between atoms: _538  and  _540
REMARK  209  A    between atoms: _540  and  _541
REMARK  210  A    between atoms: _540  and  _543
REMARK  211  A    between atoms: _543  and  _544
REMARK  212  A    between atoms: _549  and  _550
REMARK  213  A    between atoms: _552  and  _554
REMARK  214  A    between atoms: _554  and  _555
REMARK  215  A    between atoms: _554  and  _557
REMARK  216  A    between atoms: _557  and  _558
REMARK  217  A    between atoms: _561  and  _563
REMARK  218  A    between atoms: _563  and  _564
REMARK  219  A    between atoms: _563  and  _566
REMARK  220  A    between atoms: _566  and  _567
REMARK  221  A    between atoms: _567  and  _568
REMARK  222  A    between atoms: _571  and  _573
REMARK  223  A    between atoms: _573  and  _574
REMARK  224  A    between atoms: _573  and  _576
REMARK  225  A    between atoms: _576  and  _577
REMARK  226  A    between atoms: _582  and  _584
REMARK  227  A    between atoms: _584  and  _585
REMARK  228  A    between atoms: _587  and  _589
REMARK  229  A    between atoms: _589  and  _590
REMARK  230  A    between atoms: _589  and  _592
REMARK  231  A    between atoms: _592  and  _593
REMARK  232  A    between atoms: _593  and  _594
REMARK  233  A    between atoms: _596  and  _598
REMARK  234  A    between atoms: _598  and  _599
REMARK  235  A    between atoms: _598  and  _601
REMARK  236  A    between atoms: _601  and  _602
REMARK  237  A    between atoms: _605  and  _607
REMARK  238  A    between atoms: _607  and  _608
REMARK  239  A    between atoms: _607  and  _610
REMARK  240  A    between atoms: _610  and  _611
REMARK  241  A    between atoms: _621  and  _623
REMARK  242  A    between atoms: _623  and  _624
REMARK  243  A    between atoms: _623  and  _626
REMARK  244  A    between atoms: _626  and  _627
REMARK  245  A    between atoms: _629  and  _631
REMARK  246  A    between atoms: _631  and  _632
REMARK  247  A    between atoms: _631  and  _634
REMARK  248  A    between atoms: _634  and  _635
REMARK  249  A    between atoms: _640  and  _642
REMARK  250  A    between atoms: _642  and  _643
REMARK  251  A    between atoms: _642  and  _645
REMARK  252  A    between atoms: _645  and  _646
REMARK  253  A    between atoms: _652  and  _654
REMARK  254  A    between atoms: _654  and  _655
REMARK  255  A    between atoms: _654  and  _657
REMARK  256  A    between atoms: _657  and  _658
REMARK  257  A    between atoms: _658  and  _659
REMARK  258  A    between atoms: _662  and  _664
REMARK  259  A    between atoms: _664  and  _665
REMARK  260  A    between atoms: _664  and  _667
REMARK  261  A    between atoms: _667  and  _668
REMARK  262  A    between atoms: _678  and  _680
REMARK  263  A    between atoms: _680  and  _681
REMARK  264  A    between atoms: _680  and  _683
REMARK  265  A    between atoms: _683  and  _684
REMARK  266  A    between atoms: _687  and  _689
REMARK  267  A    between atoms: _689  and  _690
REMARK  268  A    between atoms: _689  and  _692
REMARK  269  A    between atoms: _692  and  _693
REMARK  270  A    between atoms: _695  and  _697
REMARK  271  A    between atoms: _697  and  _698
REMARK  272  A    between atoms: _697  and  _700
REMARK  273  A    between atoms: _700  and  _701
REMARK  274  A    between atoms: _703  and  _705
REMARK  275  A    between atoms: _705  and  _706
REMARK  276  A    between atoms: _705  and  _708
REMARK  277  A    between atoms: _708  and  _709
REMARK                            x       y       z     vdW  Elec       q    Type
REMARK                         _______ _______ _______ _____ _____    ______ ____
ROOT
ATOM      1  O   HOH     1      -1.044   3.451  48.100  0.00  0.00    +0.000 OA
ENDROOT
TORSDOF 0
REMARK  Name = ../refined-set-2016/4qll/4qll_pocket.pdb
REMARK  277 active torsions:
REMARK  status: ('A' for Active; 'I' for Inactive)
REMARK    1  A    between atoms: _1  and  _3
REMARK    2  A    between atoms: _3  and  _4
REMARK    3  A    between atoms: _3  and  _6
REMARK    4  A    between atoms: _9  and  _11
REMARK    5  A    between atoms: _11  and  _12
REMARK    6  A    between atoms: _11  and  _14
REMARK    7  A    between atoms: _14  and  _15
REMARK    8  A    between atoms: _18  and  _20
REMARK    9  A    between atoms: _20  and  _21
REMARK   10  A    between atoms: _20  and  _23
REMARK   11  A    between atoms: _23  and  _24
REMARK   12  A    between atoms: _26  and  _28
REMARK   13  A    between atoms: _28  and  _29
REMARK   14  A    between atoms: _28  and  _31
REMARK   15  A    between atoms: _31  and  _32
REMARK   16  A    between atoms: _32  and  _33
REMARK   17  A    between atoms: _38  and  _40
REMARK   18  A    between atoms: _40  and  _41
REMARK   19  A    between atoms: _40  and  _43
REMARK   20  A    between atoms: _43  and  _44
REMARK   21  A    between atoms: _44  and  _45
REMARK   22  A    between atoms: _45  and  _46
REMARK   23  A    between atoms: _55  and  _57
REMARK   24  A    between atoms: _57  and  _58
REMARK   25  A    between atoms: _57  and  _60
REMARK   26  A    between atoms: _60  and  _61
REMARK   27  A    between atoms: _66  and  _68
REMARK   28  A    between atoms: _68  and  _69
REMARK   29  A    between atoms: _68  and  _71
REMARK   30  A    between atoms: _71  and  _72
REMARK   31  A    between atoms: _77  and  _78
REMARK   32  A    between atoms: _80  and  _82
REMARK   33  A    between atoms: _82  and  _83
REMARK   34  A    between atoms: _82  and  _85
REMARK   35  A    between atoms: _85  and  _86
REMARK   36  A    between atoms: _91  and  _93
REMARK   37  A    between atoms: _93  and  _94
REMARK   38  A    between atoms: _93  and  _96
REMARK   39  A    between atoms: _96  and  _97
REMARK   40  A    between atoms: _97  and  _98
REMARK   41  A    between atoms: _103  and  _105
REMARK   42  A    between atoms: _105  and  _106
REMARK   43  A    between atoms: _105  and  _108
REMARK   44  A    between atoms: _108  and  _109
REMARK   45  A    between atoms: _109  and  _110
REMARK   46  A    between atoms: _110  and  _111
REMARK   47  A    between atoms: _120  and  _122
REMARK   48  A    between atoms: _122  and  _123
REMARK   49  A    between atoms: _122  and  _125
REMARK   50  A    between atoms: _125  and  _126
REMARK   51  A    between atoms: _129  and  _131
REMARK   52  A    between atoms: _131  and  _132
REMARK   53  A    between atoms: _131  and  _134
REMARK   54  A    between atoms: _134  and  _135
REMARK   55  A    between atoms: _138  and  _140
REMARK   56  A    between atoms: _140  and  _141
REMARK   57  A    between atoms: _140  and  _143
REMARK   58  A    between atoms: _143  and  _144
REMARK   59  A    between atoms: _147  and  _149
REMARK   60  A    between atoms: _149  and  _150
REMARK   61  A    between atoms: _149  and  _152
REMARK   62  A    between atoms: _152  and  _153
REMARK   63  A    between atoms: _156  and  _158
REMARK   64  A    between atoms: _158  and  _159
REMARK   65  A    between atoms: _162  and  _164
REMARK   66  A    between atoms: _164  and  _165
REMARK   67  A    between atoms: _164  and  _167
REMARK   68  A    between atoms: _167  and  _168
REMARK   69  A    between atoms: _171  and  _173
REMARK   70  A    between atoms: _173  and  _174
REMARK   71  A    between atoms: _173  and  _176
REMARK   72  A    between atoms: _176  and  _177
REMARK   73  A    between atoms: _182  and  _184
REMARK   74  A    between atoms: _184  and  _185
REMARK   75  A    between atoms: _184  and  _187
REMARK   76  A    between atoms: _190  and  _192
REMARK   77  A    between atoms: _192  and  _193
REMARK   78  A    between atoms: _192  and  _195
REMARK   79  A    between atoms: _195  and  _196
REMARK   80  A    between atoms: _199  and  _201
REMARK   81  A    between atoms: _201  and  _202
REMARK   82  A    between atoms: _201  and  _204
REMARK   83  A    between atoms: _204  and  _205
REMARK   84  A    between atoms: _208  and  _210
REMARK   85  A    between atoms: _210  and  _211
REMARK   86  A    between atoms: _210  and  _213
REMARK   87  A    between atoms: _213  and  _214
REMARK   88  A    between atoms: _220  and  _222
REMARK   89  A    between atoms: _222  and  _223
REMARK   90  A    between atoms: _222  and  _225
REMARK   91  A    between atoms: _225  and  _226
REMARK   92  A    between atoms: _231  and  _233
REMARK   93  A    between atoms: _233  and  _234
REMARK   94  A    between atoms: _233  and  _236
REMARK   95  A    between atoms: _236  and  _237
REMARK   96  A    between atoms: _247  and  _249
REMARK   97  A    between atoms: _249  and  _250
REMARK   98  A    between atoms: _249  and  _252
REMARK   99  A    between atoms: _252  and  _253
REMARK  100  A    between atoms: _258  and  _259
REMARK  101  A    between atoms: _261  and  _263
REMARK  102  A    between atoms: _263  and  _264
REMARK  103  A    between atoms: _267  and  _269
REMARK  104  A    between atoms: _269  and  _270
REMARK  105  A    between atoms: _269  and  _272
REMARK  106  A    between atoms: _272  and  _273
REMARK  107  A    between atoms: _279  and  _281
REMARK  108  A    between atoms: _281  and  _282
REMARK  109  A    between atoms: _281  and  _284
REMARK  110  A    between atoms: _284  and  _285
REMARK  111  A    between atoms: _290  and  _292
REMARK  112  A    between atoms: _292  and  _293
REMARK  113  A    between atoms: _292  and  _295
REMARK  114  A    between atoms: _295  and  _296
REMARK  115  A    between atoms: _301  and  _303
REMARK  116  A    between atoms: _303  and  _304
REMARK  117  A    between atoms: _303  and  _306
REMARK  118  A    between atoms: _306  and  _307
REMARK  119  A    between atoms: _307  and  _308
REMARK  120  A    between atoms: _313  and  _315
REMARK  121  A    between atoms: _315  and  _316
REMARK  122  A    between atoms: _315  and  _318
REMARK  123  A    between atoms: _318  and  _319
REMARK  124  A    between atoms: _324  and  _325
REMARK  125  A    between atoms: _327  and  _329
REMARK  126  A    between atoms: _329  and  _330
REMARK  127  A    between atoms: _329  and  _332
REMARK  128  A    between atoms: _332  and  _333
REMARK  129  A    between atoms: _336  and  _338
REMARK  130  A    between atoms: _338  and  _339
REMARK  131  A    between atoms: _342  and  _344
REMARK  132  A    between atoms: _344  and  _345
REMARK  133  A    between atoms: _344  and  _347
REMARK  134  A    between atoms: _347  and  _348
REMARK  135  A    between atoms: _350  and  _352
REMARK  136  A    between atoms: _352  and  _353
REMARK  137  A    between atoms: _352  and  _355
REMARK  138  A    between atoms: _355  and  _356
REMARK  139  A    between atoms: _361  and  _362
REMARK  140  A    between atoms: _364  and  _366
REMARK  141  A    between atoms: _366  and  _367
REMARK  142  A    between atoms: _366  and  _369
REMARK  143  A    between atoms: _369  and  _370
REMARK  144  A    between atoms: _370  and  _371
REMARK  145  A    between atoms: _373  and  _375
REMARK  146  A    between atoms: _375  and  _376
REMARK  147  A    between atoms: _375  and  _378
REMARK  148  A    between atoms: _378  and  _379
REMARK  149  A    between atoms: _379  and  _380
REMARK  150  A    between atoms: _380  and  _381
REMARK  151  A    between atoms: _381  and  _382
REMARK  152  A    between atoms: _386  and  _388
REMARK  153  A    between atoms: _388  and  _389
REMARK  154  A    between atoms: _388  and  _391
REMARK  155  A    between atoms: _391  and  _392
REMARK  156  A    between atoms: _397  and  _398
REMARK  157  A    between atoms: _400  and  _402
REMARK  158  A    between atoms: _402  and  _403
REMARK  159  A    between atoms: _402  and  _405
REMARK  160  A    between atoms: _405  and  _406
REMARK  161  A    between atoms: _408  and  _410
REMARK  162  A    between atoms: _410  and  _411
REMARK  163  A    between atoms: _414  and  _416
REMARK  164  A    between atoms: _416  and  _417
REMARK  165  A    between atoms: _416  and  _419
REMARK  166  A    between atoms: _419  and  _420
REMARK  167  A    between atoms: _423  and  _425
REMARK  168  A    between atoms: _425  and  _426
REMARK  169  A    between atoms: _425  and  _428
REMARK  170  A    between atoms: _428  and  _429
REMARK  171  A    between atoms: _439  and  _441
REMARK  172  A    between atoms: _441  and  _442
REMARK  173  A    between atoms: _441  and  _444
REMARK  174  A    between atoms: _444  and  _445
REMARK  175  A    between atoms: _445  and  _446
REMARK  176  A    between atoms: _451  and  _453
REMARK  177  A    between atoms: _453  and  _454
REMARK  178  A    between atoms: _453  and  _456
REMARK  179  A    between atoms: _459  and  _461
REMARK  180  A    between atoms: _461  and  _462
REMARK  181  A    between atoms: _461  and  _464
REMARK  182  A    between atoms: _464  and  _465
REMARK  183  A    between atoms: _468  and  _470
REMARK  184  A    between atoms: _470  and  _471
REMARK  185  A    between atoms: _474  and  _476
REMARK  186  A    between atoms: _476  and  _477
REMARK  187  A    between atoms: _476  and  _479
REMARK  188  A    between atoms: _482  and  _484
REMARK  189  A    between atoms: _484  and  _485
REMARK  190  A    between atoms: _484  and  _487
REMARK  191  A    between atoms: _487  and  _488
REMARK  192  A    between atoms: _494  and  _496
REMARK  193  A    between atoms: _496  and  _497
REMARK  194  A    between atoms: _496  and  _499
REMARK  195  A    between atoms: _499  and  _500
REMARK  196  A    between atoms: _502  and  _504
REMARK  197  A    between atoms: _504  and  _505
REMARK  198  A    between atoms: _504  and  _507
REMARK  199  A    between atoms: _507  and  _508
REMARK  200  A    between atoms: _513  and  _515
REMARK  201  A    between atoms: _515  and  _516
REMARK  202  A    between atoms: _515  and  _518
REMARK  203  A    between atoms: _518  and  _519
REMARK  204  A    between atoms: _529  and  _531
REMARK  205  A    between atoms: _531  and  _532
REMARK  206  A    between atoms: _531  and  _534
REMARK  207  A    between atoms: _534  and  _535
REMARK  208  A    between atoms: _538  and  _540
REMARK  209  A    between atoms: _540  and  _541
REMARK  210  A    between atoms: _540  and  _543
REMARK  211  A    between atoms: _543  and  _544
REMARK  212  A    between atoms: _549  and  _550
REMARK  213  A    between atoms: _552  and  _554
REMARK  214  A    between atoms: _554  and  _555
REMARK  215  A    between atoms: _554  and  _557
REMARK  216  A    between atoms: _557  and  _558
REMARK  217  A    between atoms: _561  and  _563
REMARK  218  A    between atoms: _563  and  _564
REMARK  219  A    between atoms: _563  and  _566
REMARK  220  A    between atoms: _566  and  _567
REMARK  221  A    between atoms: _567  and  _568
REMARK  222  A    between atoms: _571  and  _573
REMARK  223  A    between atoms: _573  and  _574
REMARK  224  A    between atoms: _573  and  _576
REMARK  225  A    between atoms: _576  and  _577
REMARK  226  A    between atoms: _582  and  _584
REMARK  227  A    between atoms: _584  and  _585
REMARK  228  A    between atoms: _587  and  _589
REMARK  229  A    between atoms: _589  and  _590
REMARK  230  A    between atoms: _589  and  _592
REMARK  231  A    between atoms: _592  and  _593
REMARK  232  A    between atoms: _593  and  _594
REMARK  233  A    between atoms: _596  and  _598
REMARK  234  A    between atoms: _598  and  _599
REMARK  235  A    between atoms: _598  and  _601
REMARK  236  A    between atoms: _601  and  _602
REMARK  237  A    between atoms: _605  and  _607
REMARK  238  A    between atoms: _607  and  _608
REMARK  239  A    between atoms: _607  and  _610
REMARK  240  A    between atoms: _610  and  _611
REMARK  241  A    between atoms: _621  and  _623
REMARK  242  A    between atoms: _623  and  _624
REMARK  243  A    between atoms: _623  and  _626
REMARK  244  A    between atoms: _626  and  _627
REMARK  245  A    between atoms: _629  and  _631
REMARK  246  A    between atoms: _631  and  _632
REMARK  247  A    between atoms: _631  and  _634
REMARK  248  A    between atoms: _634  and  _635
REMARK  249  A    between atoms: _640  and  _642
REMARK  250  A    between atoms: _642  and  _643
REMARK  251  A    between atoms: _642  and  _645
REMARK  252  A    between atoms: _645  and  _646
REMARK  253  A    between atoms: _652  and  _654
REMARK  254  A    between atoms: _654  and  _655
REMARK  255  A    between atoms: _654  and  _657
REMARK  256  A    between atoms: _657  and  _658
REMARK  257  A    between atoms: _658  and  _659
REMARK  258  A    between atoms: _662  and  _664
REMARK  259  A    between atoms: _664  and  _665
REMARK  260  A    between atoms: _664  and  _667
REMARK  261  A    between atoms: _667  and  _668
REMARK  262  A    between atoms: _678  and  _680
REMARK  263  A    between atoms: _680  and  _681
REMARK  264  A    between atoms: _680  and  _683
REMARK  265  A    between atoms: _683  and  _684
REMARK  266  A    between atoms: _687  and  _689
REMARK  267  A    between atoms: _689  and  _690
REMARK  268  A    between atoms: _689  and  _692
REMARK  269  A    between atoms: _692  and  _693
REMARK  270  A    between atoms: _695  and  _697
REMARK  271  A    between atoms: _697  and  _698
REMARK  272  A    between atoms: _697  and  _700
REMARK  273  A    between atoms: _700  and  _701
REMARK  274  A    between atoms: _703  and  _705
REMARK  275  A    between atoms: _705  and  _706
REMARK  276  A    between atoms: _705  and  _708
REMARK  277  A    between atoms: _708  and  _709
REMARK                            x       y       z     vdW  Elec       q    Type
REMARK                         _______ _______ _______ _____ _____    ______ ____
ROOT
ATOM      1  O   HOH     1       2.212  -4.605  50.326  0.00  0.00    +0.000 OA
ENDROOT
TORSDOF 0
REMARK  Name = ../refined-set-2016/4qll/4qll_pocket.pdb
REMARK  277 active torsions:
REMARK  status: ('A' for Active; 'I' for Inactive)
REMARK    1  A    between atoms: _1  and  _3
REMARK    2  A    between atoms: _3  and  _4
REMARK    3  A    between atoms: _3  and  _6
REMARK    4  A    between atoms: _9  and  _11
REMARK    5  A    between atoms: _11  and  _12
REMARK    6  A    between atoms: _11  and  _14
REMARK    7  A    between atoms: _14  and  _15
REMARK    8  A    between atoms: _18  and  _20
REMARK    9  A    between atoms: _20  and  _21
REMARK   10  A    between atoms: _20  and  _23
REMARK   11  A    between atoms: _23  and  _24
REMARK   12  A    between atoms: _26  and  _28
REMARK   13  A    between atoms: _28  and  _29
REMARK   14  A    between atoms: _28  and  _31
REMARK   15  A    between atoms: _31  and  _32
REMARK   16  A    between atoms: _32  and  _33
REMARK   17  A    between atoms: _38  and  _40
REMARK   18  A    between atoms: _40  and  _41
REMARK   19  A    between atoms: _40  and  _43
REMARK   20  A    between atoms: _43  and  _44
REMARK   21  A    between atoms: _44  and  _45
REMARK   22  A    between atoms: _45  and  _46
REMARK   23  A    between atoms: _55  and  _57
REMARK   24  A    between atoms: _57  and  _58
REMARK   25  A    between atoms: _57  and  _60
REMARK   26  A    between atoms: _60  and  _61
REMARK   27  A    between atoms: _66  and  _68
REMARK   28  A    between atoms: _68  and  _69
REMARK   29  A    between atoms: _68  and  _71
REMARK   30  A    between atoms: _71  and  _72
REMARK   31  A    between atoms: _77  and  _78
REMARK   32  A    between atoms: _80  and  _82
REMARK   33  A    between atoms: _82  and  _83
REMARK   34  A    between atoms: _82  and  _85
REMARK   35  A    between atoms: _85  and  _86
REMARK   36  A    between atoms: _91  and  _93
REMARK   37  A    between atoms: _93  and  _94
REMARK   38  A    between atoms: _93  and  _96
REMARK   39  A    between atoms: _96  and  _97
REMARK   40  A    between atoms: _97  and  _98
REMARK   41  A    between atoms: _103  and  _105
REMARK   42  A    between atoms: _105  and  _106
REMARK   43  A    between atoms: _105  and  _108
REMARK   44  A    between atoms: _108  and  _109
REMARK   45  A    between atoms: _109  and  _110
REMARK   46  A    between atoms: _110  and  _111
REMARK   47  A    between atoms: _120  and  _122
REMARK   48  A    between atoms: _122  and  _123
REMARK   49  A    between atoms: _122  and  _125
REMARK   50  A    between atoms: _125  and  _126
REMARK   51  A    between atoms: _129  and  _131
REMARK   52  A    between atoms: _131  and  _132
REMARK   53  A    between atoms: _131  and  _134
REMARK   54  A    between atoms: _134  and  _135
REMARK   55  A    between atoms: _138  and  _140
REMARK   56  A    between atoms: _140  and  _141
REMARK   57  A    between atoms: _140  and  _143
REMARK   58  A    between atoms: _143  and  _144
REMARK   59  A    between atoms: _147  and  _149
REMARK   60  A    between atoms: _149  and  _150
REMARK   61  A    between atoms: _149  and  _152
REMARK   62  A    between atoms: _152  and  _153
REMARK   63  A    between atoms: _156  and  _158
REMARK   64  A    between atoms: _158  and  _159
REMARK   65  A    between atoms: _162  and  _164
REMARK   66  A    between atoms: _164  and  _165
REMARK   67  A    between atoms: _164  and  _167
REMARK   68  A    between atoms: _167  and  _168
REMARK   69  A    between atoms: _171  and  _173
REMARK   70  A    between atoms: _173  and  _174
REMARK   71  A    between atoms: _173  and  _176
REMARK   72  A    between atoms: _176  and  _177
REMARK   73  A    between atoms: _182  and  _184
REMARK   74  A    between atoms: _184  and  _185
REMARK   75  A    between atoms: _184  and  _187
REMARK   76  A    between atoms: _190  and  _192
REMARK   77  A    between atoms: _192  and  _193
REMARK   78  A    between atoms: _192  and  _195
REMARK   79  A    between atoms: _195  and  _196
REMARK   80  A    between atoms: _199  and  _201
REMARK   81  A    between atoms: _201  and  _202
REMARK   82  A    between atoms: _201  and  _204
REMARK   83  A    between atoms: _204  and  _205
REMARK   84  A    between atoms: _208  and  _210
REMARK   85  A    between atoms: _210  and  _211
REMARK   86  A    between atoms: _210  and  _213
REMARK   87  A    between atoms: _213  and  _214
REMARK   88  A    between atoms: _220  and  _222
REMARK   89  A    between atoms: _222  and  _223
REMARK   90  A    between atoms: _222  and  _225
REMARK   91  A    between atoms: _225  and  _226
REMARK   92  A    between atoms: _231  and  _233
REMARK   93  A    between atoms: _233  and  _234
REMARK   94  A    between atoms: _233  and  _236
REMARK   95  A    between atoms: _236  and  _237
REMARK   96  A    between atoms: _247  and  _249
REMARK   97  A    between atoms: _249  and  _250
REMARK   98  A    between atoms: _249  and  _252
REMARK   99  A    between atoms: _252  and  _253
REMARK  100  A    between atoms: _258  and  _259
REMARK  101  A    between atoms: _261  and  _263
REMARK  102  A    between atoms: _263  and  _264
REMARK  103  A    between atoms: _267  and  _269
REMARK  104  A    between atoms: _269  and  _270
REMARK  105  A    between atoms: _269  and  _272
REMARK  106  A    between atoms: _272  and  _273
REMARK  107  A    between atoms: _279  and  _281
REMARK  108  A    between atoms: _281  and  _282
REMARK  109  A    between atoms: _281  and  _284
REMARK  110  A    between atoms: _284  and  _285
REMARK  111  A    between atoms: _290  and  _292
REMARK  112  A    between atoms: _292  and  _293
REMARK  113  A    between atoms: _292  and  _295
REMARK  114  A    between atoms: _295  and  _296
REMARK  115  A    between atoms: _301  and  _303
REMARK  116  A    between atoms: _303  and  _304
REMARK  117  A    between atoms: _303  and  _306
REMARK  118  A    between atoms: _306  and  _307
REMARK  119  A    between atoms: _307  and  _308
REMARK  120  A    between atoms: _313  and  _315
REMARK  121  A    between atoms: _315  and  _316
REMARK  122  A    between atoms: _315  and  _318
REMARK  123  A    between atoms: _318  and  _319
REMARK  124  A    between atoms: _324  and  _325
REMARK  125  A    between atoms: _327  and  _329
REMARK  126  A    between atoms: _329  and  _330
REMARK  127  A    between atoms: _329  and  _332
REMARK  128  A    between atoms: _332  and  _333
REMARK  129  A    between atoms: _336  and  _338
REMARK  130  A    between atoms: _338  and  _339
REMARK  131  A    between atoms: _342  and  _344
REMARK  132  A    between atoms: _344  and  _345
REMARK  133  A    between atoms: _344  and  _347
REMARK  134  A    between atoms: _347  and  _348
REMARK  135  A    between atoms: _350  and  _352
REMARK  136  A    between atoms: _352  and  _353
REMARK  137  A    between atoms: _352  and  _355
REMARK  138  A    between atoms: _355  and  _356
REMARK  139  A    between atoms: _361  and  _362
REMARK  140  A    between atoms: _364  and  _366
REMARK  141  A    between atoms: _366  and  _367
REMARK  142  A    between atoms: _366  and  _369
REMARK  143  A    between atoms: _369  and  _370
REMARK  144  A    between atoms: _370  and  _371
REMARK  145  A    between atoms: _373  and  _375
REMARK  146  A    between atoms: _375  and  _376
REMARK  147  A    between atoms: _375  and  _378
REMARK  148  A    between atoms: _378  and  _379
REMARK  149  A    between atoms: _379  and  _380
REMARK  150  A    between atoms: _380  and  _381
REMARK  151  A    between atoms: _381  and  _382
REMARK  152  A    between atoms: _386  and  _388
REMARK  153  A    between atoms: _388  and  _389
REMARK  154  A    between atoms: _388  and  _391
REMARK  155  A    between atoms: _391  and  _392
REMARK  156  A    between atoms: _397  and  _398
REMARK  157  A    between atoms: _400  and  _402
REMARK  158  A    between atoms: _402  and  _403
REMARK  159  A    between atoms: _402  and  _405
REMARK  160  A    between atoms: _405  and  _406
REMARK  161  A    between atoms: _408  and  _410
REMARK  162  A    between atoms: _410  and  _411
REMARK  163  A    between atoms: _414  and  _416
REMARK  164  A    between atoms: _416  and  _417
REMARK  165  A    between atoms: _416  and  _419
REMARK  166  A    between atoms: _419  and  _420
REMARK  167  A    between atoms: _423  and  _425
REMARK  168  A    between atoms: _425  and  _426
REMARK  169  A    between atoms: _425  and  _428
REMARK  170  A    between atoms: _428  and  _429
REMARK  171  A    between atoms: _439  and  _441
REMARK  172  A    between atoms: _441  and  _442
REMARK  173  A    between atoms: _441  and  _444
REMARK  174  A    between atoms: _444  and  _445
REMARK  175  A    between atoms: _445  and  _446
REMARK  176  A    between atoms: _451  and  _453
REMARK  177  A    between atoms: _453  and  _454
REMARK  178  A    between atoms: _453  and  _456
REMARK  179  A    between atoms: _459  and  _461
REMARK  180  A    between atoms: _461  and  _462
REMARK  181  A    between atoms: _461  and  _464
REMARK  182  A    between atoms: _464  and  _465
REMARK  183  A    between atoms: _468  and  _470
REMARK  184  A    between atoms: _470  and  _471
REMARK  185  A    between atoms: _474  and  _476
REMARK  186  A    between atoms: _476  and  _477
REMARK  187  A    between atoms: _476  and  _479
REMARK  188  A    between atoms: _482  and  _484
REMARK  189  A    between atoms: _484  and  _485
REMARK  190  A    between atoms: _484  and  _487
REMARK  191  A    between atoms: _487  and  _488
REMARK  192  A    between atoms: _494  and  _496
REMARK  193  A    between atoms: _496  and  _497
REMARK  194  A    between atoms: _496  and  _499
REMARK  195  A    between atoms: _499  and  _500
REMARK  196  A    between atoms: _502  and  _504
REMARK  197  A    between atoms: _504  and  _505
REMARK  198  A    between atoms: _504  and  _507
REMARK  199  A    between atoms: _507  and  _508
REMARK  200  A    between atoms: _513  and  _515
REMARK  201  A    between atoms: _515  and  _516
REMARK  202  A    between atoms: _515  and  _518
REMARK  203  A    between atoms: _518  and  _519
REMARK  204  A    between atoms: _529  and  _531
REMARK  205  A    between atoms: _531  and  _532
REMARK  206  A    between atoms: _531  and  _534
REMARK  207  A    between atoms: _534  and  _535
REMARK  208  A    between atoms: _538  and  _540
REMARK  209  A    between atoms: _540  and  _541
REMARK  210  A    between atoms: _540  and  _543
REMARK  211  A    between atoms: _543  and  _544
REMARK  212  A    between atoms: _549  and  _550
REMARK  213  A    between atoms: _552  and  _554
REMARK  214  A    between atoms: _554  and  _555
REMARK  215  A    between atoms: _554  and  _557
REMARK  216  A    between atoms: _557  and  _558
REMARK  217  A    between atoms: _561  and  _563
REMARK  218  A    between atoms: _563  and  _564
REMARK  219  A    between atoms: _563  and  _566
REMARK  220  A    between atoms: _566  and  _567
REMARK  221  A    between atoms: _567  and  _568
REMARK  222  A    between atoms: _571  and  _573
REMARK  223  A    between atoms: _573  and  _574
REMARK  224  A    between atoms: _573  and  _576
REMARK  225  A    between atoms: _576  and  _577
REMARK  226  A    between atoms: _582  and  _584
REMARK  227  A    between atoms: _584  and  _585
REMARK  228  A    between atoms: _587  and  _589
REMARK  229  A    between atoms: _589  and  _590
REMARK  230  A    between atoms: _589  and  _592
REMARK  231  A    between atoms: _592  and  _593
REMARK  232  A    between atoms: _593  and  _594
REMARK  233  A    between atoms: _596  and  _598
REMARK  234  A    between atoms: _598  and  _599
REMARK  235  A    between atoms: _598  and  _601
REMARK  236  A    between atoms: _601  and  _602
REMARK  237  A    between atoms: _605  and  _607
REMARK  238  A    between atoms: _607  and  _608
REMARK  239  A    between atoms: _607  and  _610
REMARK  240  A    between atoms: _610  and  _611
REMARK  241  A    between atoms: _621  and  _623
REMARK  242  A    between atoms: _623  and  _624
REMARK  243  A    between atoms: _623  and  _626
REMARK  244  A    between atoms: _626  and  _627
REMARK  245  A    between atoms: _629  and  _631
REMARK  246  A    between atoms: _631  and  _632
REMARK  247  A    between atoms: _631  and  _634
REMARK  248  A    between atoms: _634  and  _635
REMARK  249  A    between atoms: _640  and  _642
REMARK  250  A    between atoms: _642  and  _643
REMARK  251  A    between atoms: _642  and  _645
REMARK  252  A    between atoms: _645  and  _646
REMARK  253  A    between atoms: _652  and  _654
REMARK  254  A    between atoms: _654  and  _655
REMARK  255  A    between atoms: _654  and  _657
REMARK  256  A    between atoms: _657  and  _658
REMARK  257  A    between atoms: _658  and  _659
REMARK  258  A    between atoms: _662  and  _664
REMARK  259  A    between atoms: _664  and  _665
REMARK  260  A    between atoms: _664  and  _667
REMARK  261  A    between atoms: _667  and  _668
REMARK  262  A    between atoms: _678  and  _680
REMARK  263  A    between atoms: _680  and  _681
REMARK  264  A    between atoms: _680  and  _683
REMARK  265  A    between atoms: _683  and  _684
REMARK  266  A    between atoms: _687  and  _689
REMARK  267  A    between atoms: _689  and  _690
REMARK  268  A    between atoms: _689  and  _692
REMARK  269  A    between atoms: _692  and  _693
REMARK  270  A    between atoms: _695  and  _697
REMARK  271  A    between atoms: _697  and  _698
REMARK  272  A    between atoms: _697  and  _700
REMARK  273  A    between atoms: _700  and  _701
REMARK  274  A    between atoms: _703  and  _705
REMARK  275  A    between atoms: _705  and  _706
REMARK  276  A    between atoms: _705  and  _708
REMARK  277  A    between atoms: _708  and  _709
REMARK                            x       y       z     vdW  Elec       q    Type
REMARK                         _______ _______ _______ _____ _____    ______ ____
ROOT
ATOM      1  O   HOH     1      -2.050   2.662  38.014  0.00  0.00    +0.000 OA
ENDROOT
TORSDOF 0
REMARK  Name = ../refined-set-2016/4qll/4qll_pocket.pdb
REMARK  277 active torsions:
REMARK  status: ('A' for Active; 'I' for Inactive)
REMARK    1  A    between atoms: _1  and  _3
REMARK    2  A    between atoms: _3  and  _4
REMARK    3  A    between atoms: _3  and  _6
REMARK    4  A    between atoms: _9  and  _11
REMARK    5  A    between atoms: _11  and  _12
REMARK    6  A    between atoms: _11  and  _14
REMARK    7  A    between atoms: _14  and  _15
REMARK    8  A    between atoms: _18  and  _20
REMARK    9  A    between atoms: _20  and  _21
REMARK   10  A    between atoms: _20  and  _23
REMARK   11  A    between atoms: _23  and  _24
REMARK   12  A    between atoms: _26  and  _28
REMARK   13  A    between atoms: _28  and  _29
REMARK   14  A    between atoms: _28  and  _31
REMARK   15  A    between atoms: _31  and  _32
REMARK   16  A    between atoms: _32  and  _33
REMARK   17  A    between atoms: _38  and  _40
REMARK   18  A    between atoms: _40  and  _41
REMARK   19  A    between atoms: _40  and  _43
REMARK   20  A    between atoms: _43  and  _44
REMARK   21  A    between atoms: _44  and  _45
REMARK   22  A    between atoms: _45  and  _46
REMARK   23  A    between atoms: _55  and  _57
REMARK   24  A    between atoms: _57  and  _58
REMARK   25  A    between atoms: _57  and  _60
REMARK   26  A    between atoms: _60  and  _61
REMARK   27  A    between atoms: _66  and  _68
REMARK   28  A    between atoms: _68  and  _69
REMARK   29  A    between atoms: _68  and  _71
REMARK   30  A    between atoms: _71  and  _72
REMARK   31  A    between atoms: _77  and  _78
REMARK   32  A    between atoms: _80  and  _82
REMARK   33  A    between atoms: _82  and  _83
REMARK   34  A    between atoms: _82  and  _85
REMARK   35  A    between atoms: _85  and  _86
REMARK   36  A    between atoms: _91  and  _93
REMARK   37  A    between atoms: _93  and  _94
REMARK   38  A    between atoms: _93  and  _96
REMARK   39  A    between atoms: _96  and  _97
REMARK   40  A    between atoms: _97  and  _98
REMARK   41  A    between atoms: _103  and  _105
REMARK   42  A    between atoms: _105  and  _106
REMARK   43  A    between atoms: _105  and  _108
REMARK   44  A    between atoms: _108  and  _109
REMARK   45  A    between atoms: _109  and  _110
REMARK   46  A    between atoms: _110  and  _111
REMARK   47  A    between atoms: _120  and  _122
REMARK   48  A    between atoms: _122  and  _123
REMARK   49  A    between atoms: _122  and  _125
REMARK   50  A    between atoms: _125  and  _126
REMARK   51  A    between atoms: _129  and  _131
REMARK   52  A    between atoms: _131  and  _132
REMARK   53  A    between atoms: _131  and  _134
REMARK   54  A    between atoms: _134  and  _135
REMARK   55  A    between atoms: _138  and  _140
REMARK   56  A    between atoms: _140  and  _141
REMARK   57  A    between atoms: _140  and  _143
REMARK   58  A    between atoms: _143  and  _144
REMARK   59  A    between atoms: _147  and  _149
REMARK   60  A    between atoms: _149  and  _150
REMARK   61  A    between atoms: _149  and  _152
REMARK   62  A    between atoms: _152  and  _153
REMARK   63  A    between atoms: _156  and  _158
REMARK   64  A    between atoms: _158  and  _159
REMARK   65  A    between atoms: _162  and  _164
REMARK   66  A    between atoms: _164  and  _165
REMARK   67  A    between atoms: _164  and  _167
REMARK   68  A    between atoms: _167  and  _168
REMARK   69  A    between atoms: _171  and  _173
REMARK   70  A    between atoms: _173  and  _174
REMARK   71  A    between atoms: _173  and  _176
REMARK   72  A    between atoms: _176  and  _177
REMARK   73  A    between atoms: _182  and  _184
REMARK   74  A    between atoms: _184  and  _185
REMARK   75  A    between atoms: _184  and  _187
REMARK   76  A    between atoms: _190  and  _192
REMARK   77  A    between atoms: _192  and  _193
REMARK   78  A    between atoms: _192  and  _195
REMARK   79  A    between atoms: _195  and  _196
REMARK   80  A    between atoms: _199  and  _201
REMARK   81  A    between atoms: _201  and  _202
REMARK   82  A    between atoms: _201  and  _204
REMARK   83  A    between atoms: _204  and  _205
REMARK   84  A    between atoms: _208  and  _210
REMARK   85  A    between atoms: _210  and  _211
REMARK   86  A    between atoms: _210  and  _213
REMARK   87  A    between atoms: _213  and  _214
REMARK   88  A    between atoms: _220  and  _222
REMARK   89  A    between atoms: _222  and  _223
REMARK   90  A    between atoms: _222  and  _225
REMARK   91  A    between atoms: _225  and  _226
REMARK   92  A    between atoms: _231  and  _233
REMARK   93  A    between atoms: _233  and  _234
REMARK   94  A    between atoms: _233  and  _236
REMARK   95  A    between atoms: _236  and  _237
REMARK   96  A    between atoms: _247  and  _249
REMARK   97  A    between atoms: _249  and  _250
REMARK   98  A    between atoms: _249  and  _252
REMARK   99  A    between atoms: _252  and  _253
REMARK  100  A    between atoms: _258  and  _259
REMARK  101  A    between atoms: _261  and  _263
REMARK  102  A    between atoms: _263  and  _264
REMARK  103  A    between atoms: _267  and  _269
REMARK  104  A    between atoms: _269  and  _270
REMARK  105  A    between atoms: _269  and  _272
REMARK  106  A    between atoms: _272  and  _273
REMARK  107  A    between atoms: _279  and  _281
REMARK  108  A    between atoms: _281  and  _282
REMARK  109  A    between atoms: _281  and  _284
REMARK  110  A    between atoms: _284  and  _285
REMARK  111  A    between atoms: _290  and  _292
REMARK  112  A    between atoms: _292  and  _293
REMARK  113  A    between atoms: _292  and  _295
REMARK  114  A    between atoms: _295  and  _296
REMARK  115  A    between atoms: _301  and  _303
REMARK  116  A    between atoms: _303  and  _304
REMARK  117  A    between atoms: _303  and  _306
REMARK  118  A    between atoms: _306  and  _307
REMARK  119  A    between atoms: _307  and  _308
REMARK  120  A    between atoms: _313  and  _315
REMARK  121  A    between atoms: _315  and  _316
REMARK  122  A    between atoms: _315  and  _318
REMARK  123  A    between atoms: _318  and  _319
REMARK  124  A    between atoms: _324  and  _325
REMARK  125  A    between atoms: _327  and  _329
REMARK  126  A    between atoms: _329  and  _330
REMARK  127  A    between atoms: _329  and  _332
REMARK  128  A    between atoms: _332  and  _333
REMARK  129  A    between atoms: _336  and  _338
REMARK  130  A    between atoms: _338  and  _339
REMARK  131  A    between atoms: _342  and  _344
REMARK  132  A    between atoms: _344  and  _345
REMARK  133  A    between atoms: _344  and  _347
REMARK  134  A    between atoms: _347  and  _348
REMARK  135  A    between atoms: _350  and  _352
REMARK  136  A    between atoms: _352  and  _353
REMARK  137  A    between atoms: _352  and  _355
REMARK  138  A    between atoms: _355  and  _356
REMARK  139  A    between atoms: _361  and  _362
REMARK  140  A    between atoms: _364  and  _366
REMARK  141  A    between atoms: _366  and  _367
REMARK  142  A    between atoms: _366  and  _369
REMARK  143  A    between atoms: _369  and  _370
REMARK  144  A    between atoms: _370  and  _371
REMARK  145  A    between atoms: _373  and  _375
REMARK  146  A    between atoms: _375  and  _376
REMARK  147  A    between atoms: _375  and  _378
REMARK  148  A    between atoms: _378  and  _379
REMARK  149  A    between atoms: _379  and  _380
REMARK  150  A    between atoms: _380  and  _381
REMARK  151  A    between atoms: _381  and  _382
REMARK  152  A    between atoms: _386  and  _388
REMARK  153  A    between atoms: _388  and  _389
REMARK  154  A    between atoms: _388  and  _391
REMARK  155  A    between atoms: _391  and  _392
REMARK  156  A    between atoms: _397  and  _398
REMARK  157  A    between atoms: _400  and  _402
REMARK  158  A    between atoms: _402  and  _403
REMARK  159  A    between atoms: _402  and  _405
REMARK  160  A    between atoms: _405  and  _406
REMARK  161  A    between atoms: _408  and  _410
REMARK  162  A    between atoms: _410  and  _411
REMARK  163  A    between atoms: _414  and  _416
REMARK  164  A    between atoms: _416  and  _417
REMARK  165  A    between atoms: _416  and  _419
REMARK  166  A    between atoms: _419  and  _420
REMARK  167  A    between atoms: _423  and  _425
REMARK  168  A    between atoms: _425  and  _426
REMARK  169  A    between atoms: _425  and  _428
REMARK  170  A    between atoms: _428  and  _429
REMARK  171  A    between atoms: _439  and  _441
REMARK  172  A    between atoms: _441  and  _442
REMARK  173  A    between atoms: _441  and  _444
REMARK  174  A    between atoms: _444  and  _445
REMARK  175  A    between atoms: _445  and  _446
REMARK  176  A    between atoms: _451  and  _453
REMARK  177  A    between atoms: _453  and  _454
REMARK  178  A    between atoms: _453  and  _456
REMARK  179  A    between atoms: _459  and  _461
REMARK  180  A    between atoms: _461  and  _462
REMARK  181  A    between atoms: _461  and  _464
REMARK  182  A    between atoms: _464  and  _465
REMARK  183  A    between atoms: _468  and  _470
REMARK  184  A    between atoms: _470  and  _471
REMARK  185  A    between atoms: _474  and  _476
REMARK  186  A    between atoms: _476  and  _477
REMARK  187  A    between atoms: _476  and  _479
REMARK  188  A    between atoms: _482  and  _484
REMARK  189  A    between atoms: _484  and  _485
REMARK  190  A    between atoms: _484  and  _487
REMARK  191  A    between atoms: _487  and  _488
REMARK  192  A    between atoms: _494  and  _496
REMARK  193  A    between atoms: _496  and  _497
REMARK  194  A    between atoms: _496  and  _499
REMARK  195  A    between atoms: _499  and  _500
REMARK  196  A    between atoms: _502  and  _504
REMARK  197  A    between atoms: _504  and  _505
REMARK  198  A    between atoms: _504  and  _507
REMARK  199  A    between atoms: _507  and  _508
REMARK  200  A    between atoms: _513  and  _515
REMARK  201  A    between atoms: _515  and  _516
REMARK  202  A    between atoms: _515  and  _518
REMARK  203  A    between atoms: _518  and  _519
REMARK  204  A    between atoms: _529  and  _531
REMARK  205  A    between atoms: _531  and  _532
REMARK  206  A    between atoms: _531  and  _534
REMARK  207  A    between atoms: _534  and  _535
REMARK  208  A    between atoms: _538  and  _540
REMARK  209  A    between atoms: _540  and  _541
REMARK  210  A    between atoms: _540  and  _543
REMARK  211  A    between atoms: _543  and  _544
REMARK  212  A    between atoms: _549  and  _550
REMARK  213  A    between atoms: _552  and  _554
REMARK  214  A    between atoms: _554  and  _555
REMARK  215  A    between atoms: _554  and  _557
REMARK  216  A    between atoms: _557  and  _558
REMARK  217  A    between atoms: _561  and  _563
REMARK  218  A    between atoms: _563  and  _564
REMARK  219  A    between atoms: _563  and  _566
REMARK  220  A    between atoms: _566  and  _567
REMARK  221  A    between atoms: _567  and  _568
REMARK  222  A    between atoms: _571  and  _573
REMARK  223  A    between atoms: _573  and  _574
REMARK  224  A    between atoms: _573  and  _576
REMARK  225  A    between atoms: _576  and  _577
REMARK  226  A    between atoms: _582  and  _584
REMARK  227  A    between atoms: _584  and  _585
REMARK  228  A    between atoms: _587  and  _589
REMARK  229  A    between atoms: _589  and  _590
REMARK  230  A    between atoms: _589  and  _592
REMARK  231  A    between atoms: _592  and  _593
REMARK  232  A    between atoms: _593  and  _594
REMARK  233  A    between atoms: _596  and  _598
REMARK  234  A    between atoms: _598  and  _599
REMARK  235  A    between atoms: _598  and  _601
REMARK  236  A    between atoms: _601  and  _602
REMARK  237  A    between atoms: _605  and  _607
REMARK  238  A    between atoms: _607  and  _608
REMARK  239  A    between atoms: _607  and  _610
REMARK  240  A    between atoms: _610  and  _611
REMARK  241  A    between atoms: _621  and  _623
REMARK  242  A    between atoms: _623  and  _624
REMARK  243  A    between atoms: _623  and  _626
REMARK  244  A    between atoms: _626  and  _627
REMARK  245  A    between atoms: _629  and  _631
REMARK  246  A    between atoms: _631  and  _632
REMARK  247  A    between atoms: _631  and  _634
REMARK  248  A    between atoms: _634  and  _635
REMARK  249  A    between atoms: _640  and  _642
REMARK  250  A    between atoms: _642  and  _643
REMARK  251  A    between atoms: _642  and  _645
REMARK  252  A    between atoms: _645  and  _646
REMARK  253  A    between atoms: _652  and  _654
REMARK  254  A    between atoms: _654  and  _655
REMARK  255  A    between atoms: _654  and  _657
REMARK  256  A    between atoms: _657  and  _658
REMARK  257  A    between atoms: _658  and  _659
REMARK  258  A    between atoms: _662  and  _664
REMARK  259  A    between atoms: _664  and  _665
REMARK  260  A    between atoms: _664  and  _667
REMARK  261  A    between atoms: _667  and  _668
REMARK  262  A    between atoms: _678  and  _680
REMARK  263  A    between atoms: _680  and  _681
REMARK  264  A    between atoms: _680  and  _683
REMARK  265  A    between atoms: _683  and  _684
REMARK  266  A    between atoms: _687  and  _689
REMARK  267  A    between atoms: _689  and  _690
REMARK  268  A    between atoms: _689  and  _692
REMARK  269  A    between atoms: _692  and  _693
REMARK  270  A    between atoms: _695  and  _697
REMARK  271  A    between atoms: _697  and  _698
REMARK  272  A    between atoms: _697  and  _700
REMARK  273  A    between atoms: _700  and  _701
REMARK  274  A    between atoms: _703  and  _705
REMARK  275  A    between atoms: _705  and  _706
REMARK  276  A    between atoms: _705  and  _708
REMARK  277  A    between atoms: _708  and  _709
REMARK                            x       y       z     vdW  Elec       q    Type
REMARK                         _______ _______ _______ _____ _____    ______ ____
ROOT
ATOM      1  O   HOH     1      -5.112   4.105  37.172  0.00  0.00    +0.000 OA
ENDROOT
TORSDOF 0
REMARK  Name = ../refined-set-2016/4qll/4qll_pocket.pdb
REMARK  277 active torsions:
REMARK  status: ('A' for Active; 'I' for Inactive)
REMARK    1  A    between atoms: _1  and  _3
REMARK    2  A    between atoms: _3  and  _4
REMARK    3  A    between atoms: _3  and  _6
REMARK    4  A    between atoms: _9  and  _11
REMARK    5  A    between atoms: _11  and  _12
REMARK    6  A    between atoms: _11  and  _14
REMARK    7  A    between atoms: _14  and  _15
REMARK    8  A    between atoms: _18  and  _20
REMARK    9  A    between atoms: _20  and  _21
REMARK   10  A    between atoms: _20  and  _23
REMARK   11  A    between atoms: _23  and  _24
REMARK   12  A    between atoms: _26  and  _28
REMARK   13  A    between atoms: _28  and  _29
REMARK   14  A    between atoms: _28  and  _31
REMARK   15  A    between atoms: _31  and  _32
REMARK   16  A    between atoms: _32  and  _33
REMARK   17  A    between atoms: _38  and  _40
REMARK   18  A    between atoms: _40  and  _41
REMARK   19  A    between atoms: _40  and  _43
REMARK   20  A    between atoms: _43  and  _44
REMARK   21  A    between atoms: _44  and  _45
REMARK   22  A    between atoms: _45  and  _46
REMARK   23  A    between atoms: _55  and  _57
REMARK   24  A    between atoms: _57  and  _58
REMARK   25  A    between atoms: _57  and  _60
REMARK   26  A    between atoms: _60  and  _61
REMARK   27  A    between atoms: _66  and  _68
REMARK   28  A    between atoms: _68  and  _69
REMARK   29  A    between atoms: _68  and  _71
REMARK   30  A    between atoms: _71  and  _72
REMARK   31  A    between atoms: _77  and  _78
REMARK   32  A    between atoms: _80  and  _82
REMARK   33  A    between atoms: _82  and  _83
REMARK   34  A    between atoms: _82  and  _85
REMARK   35  A    between atoms: _85  and  _86
REMARK   36  A    between atoms: _91  and  _93
REMARK   37  A    between atoms: _93  and  _94
REMARK   38  A    between atoms: _93  and  _96
REMARK   39  A    between atoms: _96  and  _97
REMARK   40  A    between atoms: _97  and  _98
REMARK   41  A    between atoms: _103  and  _105
REMARK   42  A    between atoms: _105  and  _106
REMARK   43  A    between atoms: _105  and  _108
REMARK   44  A    between atoms: _108  and  _109
REMARK   45  A    between atoms: _109  and  _110
REMARK   46  A    between atoms: _110  and  _111
REMARK   47  A    between atoms: _120  and  _122
REMARK   48  A    between atoms: _122  and  _123
REMARK   49  A    between atoms: _122  and  _125
REMARK   50  A    between atoms: _125  and  _126
REMARK   51  A    between atoms: _129  and  _131
REMARK   52  A    between atoms: _131  and  _132
REMARK   53  A    between atoms: _131  and  _134
REMARK   54  A    between atoms: _134  and  _135
REMARK   55  A    between atoms: _138  and  _140
REMARK   56  A    between atoms: _140  and  _141
REMARK   57  A    between atoms: _140  and  _143
REMARK   58  A    between atoms: _143  and  _144
REMARK   59  A    between atoms: _147  and  _149
REMARK   60  A    between atoms: _149  and  _150
REMARK   61  A    between atoms: _149  and  _152
REMARK   62  A    between atoms: _152  and  _153
REMARK   63  A    between atoms: _156  and  _158
REMARK   64  A    between atoms: _158  and  _159
REMARK   65  A    between atoms: _162  and  _164
REMARK   66  A    between atoms: _164  and  _165
REMARK   67  A    between atoms: _164  and  _167
REMARK   68  A    between atoms: _167  and  _168
REMARK   69  A    between atoms: _171  and  _173
REMARK   70  A    between atoms: _173  and  _174
REMARK   71  A    between atoms: _173  and  _176
REMARK   72  A    between atoms: _176  and  _177
REMARK   73  A    between atoms: _182  and  _184
REMARK   74  A    between atoms: _184  and  _185
REMARK   75  A    between atoms: _184  and  _187
REMARK   76  A    between atoms: _190  and  _192
REMARK   77  A    between atoms: _192  and  _193
REMARK   78  A    between atoms: _192  and  _195
REMARK   79  A    between atoms: _195  and  _196
REMARK   80  A    between atoms: _199  and  _201
REMARK   81  A    between atoms: _201  and  _202
REMARK   82  A    between atoms: _201  and  _204
REMARK   83  A    between atoms: _204  and  _205
REMARK   84  A    between atoms: _208  and  _210
REMARK   85  A    between atoms: _210  and  _211
REMARK   86  A    between atoms: _210  and  _213
REMARK   87  A    between atoms: _213  and  _214
REMARK   88  A    between atoms: _220  and  _222
REMARK   89  A    between atoms: _222  and  _223
REMARK   90  A    between atoms: _222  and  _225
REMARK   91  A    between atoms: _225  and  _226
REMARK   92  A    between atoms: _231  and  _233
REMARK   93  A    between atoms: _233  and  _234
REMARK   94  A    between atoms: _233  and  _236
REMARK   95  A    between atoms: _236  and  _237
REMARK   96  A    between atoms: _247  and  _249
REMARK   97  A    between atoms: _249  and  _250
REMARK   98  A    between atoms: _249  and  _252
REMARK   99  A    between atoms: _252  and  _253
REMARK  100  A    between atoms: _258  and  _259
REMARK  101  A    between atoms: _261  and  _263
REMARK  102  A    between atoms: _263  and  _264
REMARK  103  A    between atoms: _267  and  _269
REMARK  104  A    between atoms: _269  and  _270
REMARK  105  A    between atoms: _269  and  _272
REMARK  106  A    between atoms: _272  and  _273
REMARK  107  A    between atoms: _279  and  _281
REMARK  108  A    between atoms: _281  and  _282
REMARK  109  A    between atoms: _281  and  _284
REMARK  110  A    between atoms: _284  and  _285
REMARK  111  A    between atoms: _290  and  _292
REMARK  112  A    between atoms: _292  and  _293
REMARK  113  A    between atoms: _292  and  _295
REMARK  114  A    between atoms: _295  and  _296
REMARK  115  A    between atoms: _301  and  _303
REMARK  116  A    between atoms: _303  and  _304
REMARK  117  A    between atoms: _303  and  _306
REMARK  118  A    between atoms: _306  and  _307
REMARK  119  A    between atoms: _307  and  _308
REMARK  120  A    between atoms: _313  and  _315
REMARK  121  A    between atoms: _315  and  _316
REMARK  122  A    between atoms: _315  and  _318
REMARK  123  A    between atoms: _318  and  _319
REMARK  124  A    between atoms: _324  and  _325
REMARK  125  A    between atoms: _327  and  _329
REMARK  126  A    between atoms: _329  and  _330
REMARK  127  A    between atoms: _329  and  _332
REMARK  128  A    between atoms: _332  and  _333
REMARK  129  A    between atoms: _336  and  _338
REMARK  130  A    between atoms: _338  and  _339
REMARK  131  A    between atoms: _342  and  _344
REMARK  132  A    between atoms: _344  and  _345
REMARK  133  A    between atoms: _344  and  _347
REMARK  134  A    between atoms: _347  and  _348
REMARK  135  A    between atoms: _350  and  _352
REMARK  136  A    between atoms: _352  and  _353
REMARK  137  A    between atoms: _352  and  _355
REMARK  138  A    between atoms: _355  and  _356
REMARK  139  A    between atoms: _361  and  _362
REMARK  140  A    between atoms: _364  and  _366
REMARK  141  A    between atoms: _366  and  _367
REMARK  142  A    between atoms: _366  and  _369
REMARK  143  A    between atoms: _369  and  _370
REMARK  144  A    between atoms: _370  and  _371
REMARK  145  A    between atoms: _373  and  _375
REMARK  146  A    between atoms: _375  and  _376
REMARK  147  A    between atoms: _375  and  _378
REMARK  148  A    between atoms: _378  and  _379
REMARK  149  A    between atoms: _379  and  _380
REMARK  150  A    between atoms: _380  and  _381
REMARK  151  A    between atoms: _381  and  _382
REMARK  152  A    between atoms: _386  and  _388
REMARK  153  A    between atoms: _388  and  _389
REMARK  154  A    between atoms: _388  and  _391
REMARK  155  A    between atoms: _391  and  _392
REMARK  156  A    between atoms: _397  and  _398
REMARK  157  A    between atoms: _400  and  _402
REMARK  158  A    between atoms: _402  and  _403
REMARK  159  A    between atoms: _402  and  _405
REMARK  160  A    between atoms: _405  and  _406
REMARK  161  A    between atoms: _408  and  _410
REMARK  162  A    between atoms: _410  and  _411
REMARK  163  A    between atoms: _414  and  _416
REMARK  164  A    between atoms: _416  and  _417
REMARK  165  A    between atoms: _416  and  _419
REMARK  166  A    between atoms: _419  and  _420
REMARK  167  A    between atoms: _423  and  _425
REMARK  168  A    between atoms: _425  and  _426
REMARK  169  A    between atoms: _425  and  _428
REMARK  170  A    between atoms: _428  and  _429
REMARK  171  A    between atoms: _439  and  _441
REMARK  172  A    between atoms: _441  and  _442
REMARK  173  A    between atoms: _441  and  _444
REMARK  174  A    between atoms: _444  and  _445
REMARK  175  A    between atoms: _445  and  _446
REMARK  176  A    between atoms: _451  and  _453
REMARK  177  A    between atoms: _453  and  _454
REMARK  178  A    between atoms: _453  and  _456
REMARK  179  A    between atoms: _459  and  _461
REMARK  180  A    between atoms: _461  and  _462
REMARK  181  A    between atoms: _461  and  _464
REMARK  182  A    between atoms: _464  and  _465
REMARK  183  A    between atoms: _468  and  _470
REMARK  184  A    between atoms: _470  and  _471
REMARK  185  A    between atoms: _474  and  _476
REMARK  186  A    between atoms: _476  and  _477
REMARK  187  A    between atoms: _476  and  _479
REMARK  188  A    between atoms: _482  and  _484
REMARK  189  A    between atoms: _484  and  _485
REMARK  190  A    between atoms: _484  and  _487
REMARK  191  A    between atoms: _487  and  _488
REMARK  192  A    between atoms: _494  and  _496
REMARK  193  A    between atoms: _496  and  _497
REMARK  194  A    between atoms: _496  and  _499
REMARK  195  A    between atoms: _499  and  _500
REMARK  196  A    between atoms: _502  and  _504
REMARK  197  A    between atoms: _504  and  _505
REMARK  198  A    between atoms: _504  and  _507
REMARK  199  A    between atoms: _507  and  _508
REMARK  200  A    between atoms: _513  and  _515
REMARK  201  A    between atoms: _515  and  _516
REMARK  202  A    between atoms: _515  and  _518
REMARK  203  A    between atoms: _518  and  _519
REMARK  204  A    between atoms: _529  and  _531
REMARK  205  A    between atoms: _531  and  _532
REMARK  206  A    between atoms: _531  and  _534
REMARK  207  A    between atoms: _534  and  _535
REMARK  208  A    between atoms: _538  and  _540
REMARK  209  A    between atoms: _540  and  _541
REMARK  210  A    between atoms: _540  and  _543
REMARK  211  A    between atoms: _543  and  _544
REMARK  212  A    between atoms: _549  and  _550
REMARK  213  A    between atoms: _552  and  _554
REMARK  214  A    between atoms: _554  and  _555
REMARK  215  A    between atoms: _554  and  _557
REMARK  216  A    between atoms: _557  and  _558
REMARK  217  A    between atoms: _561  and  _563
REMARK  218  A    between atoms: _563  and  _564
REMARK  219  A    between atoms: _563  and  _566
REMARK  220  A    between atoms: _566  and  _567
REMARK  221  A    between atoms: _567  and  _568
REMARK  222  A    between atoms: _571  and  _573
REMARK  223  A    between atoms: _573  and  _574
REMARK  224  A    between atoms: _573  and  _576
REMARK  225  A    between atoms: _576  and  _577
REMARK  226  A    between atoms: _582  and  _584
REMARK  227  A    between atoms: _584  and  _585
REMARK  228  A    between atoms: _587  and  _589
REMARK  229  A    between atoms: _589  and  _590
REMARK  230  A    between atoms: _589  and  _592
REMARK  231  A    between atoms: _592  and  _593
REMARK  232  A    between atoms: _593  and  _594
REMARK  233  A    between atoms: _596  and  _598
REMARK  234  A    between atoms: _598  and  _599
REMARK  235  A    between atoms: _598  and  _601
REMARK  236  A    between atoms: _601  and  _602
REMARK  237  A    between atoms: _605  and  _607
REMARK  238  A    between atoms: _607  and  _608
REMARK  239  A    between atoms: _607  and  _610
REMARK  240  A    between atoms: _610  and  _611
REMARK  241  A    between atoms: _621  and  _623
REMARK  242  A    between atoms: _623  and  _624
REMARK  243  A    between atoms: _623  and  _626
REMARK  244  A    between atoms: _626  and  _627
REMARK  245  A    between atoms: _629  and  _631
REMARK  246  A    between atoms: _631  and  _632
REMARK  247  A    between atoms: _631  and  _634
REMARK  248  A    between atoms: _634  and  _635
REMARK  249  A    between atoms: _640  and  _642
REMARK  250  A    between atoms: _642  and  _643
REMARK  251  A    between atoms: _642  and  _645
REMARK  252  A    between atoms: _645  and  _646
REMARK  253  A    between atoms: _652  and  _654
REMARK  254  A    between atoms: _654  and  _655
REMARK  255  A    between atoms: _654  and  _657
REMARK  256  A    between atoms: _657  and  _658
REMARK  257  A    between atoms: _658  and  _659
REMARK  258  A    between atoms: _662  and  _664
REMARK  259  A    between atoms: _664  and  _665
REMARK  260  A    between atoms: _664  and  _667
REMARK  261  A    between atoms: _667  and  _668
REMARK  262  A    between atoms: _678  and  _680
REMARK  263  A    between atoms: _680  and  _681
REMARK  264  A    between atoms: _680  and  _683
REMARK  265  A    between atoms: _683  and  _684
REMARK  266  A    between atoms: _687  and  _689
REMARK  267  A    between atoms: _689  and  _690
REMARK  268  A    between atoms: _689  and  _692
REMARK  269  A    between atoms: _692  and  _693
REMARK  270  A    between atoms: _695  and  _697
REMARK  271  A    between atoms: _697  and  _698
REMARK  272  A    between atoms: _697  and  _700
REMARK  273  A    between atoms: _700  and  _701
REMARK  274  A    between atoms: _703  and  _705
REMARK  275  A    between atoms: _705  and  _706
REMARK  276  A    between atoms: _705  and  _708
REMARK  277  A    between atoms: _708  and  _709
REMARK                            x       y       z     vdW  Elec       q    Type
REMARK                         _______ _______ _______ _____ _____    ______ ____
ROOT
ATOM      1  O   HOH     1      -3.120   2.285  55.042  0.00  0.00    +0.000 OA
ENDROOT
TORSDOF 0
REMARK  Name = ../refined-set-2016/4qll/4qll_pocket.pdb
REMARK  277 active torsions:
REMARK  status: ('A' for Active; 'I' for Inactive)
REMARK    1  A    between atoms: _1  and  _3
REMARK    2  A    between atoms: _3  and  _4
REMARK    3  A    between atoms: _3  and  _6
REMARK    4  A    between atoms: _9  and  _11
REMARK    5  A    between atoms: _11  and  _12
REMARK    6  A    between atoms: _11  and  _14
REMARK    7  A    between atoms: _14  and  _15
REMARK    8  A    between atoms: _18  and  _20
REMARK    9  A    between atoms: _20  and  _21
REMARK   10  A    between atoms: _20  and  _23
REMARK   11  A    between atoms: _23  and  _24
REMARK   12  A    between atoms: _26  and  _28
REMARK   13  A    between atoms: _28  and  _29
REMARK   14  A    between atoms: _28  and  _31
REMARK   15  A    between atoms: _31  and  _32
REMARK   16  A    between atoms: _32  and  _33
REMARK   17  A    between atoms: _38  and  _40
REMARK   18  A    between atoms: _40  and  _41
REMARK   19  A    between atoms: _40  and  _43
REMARK   20  A    between atoms: _43  and  _44
REMARK   21  A    between atoms: _44  and  _45
REMARK   22  A    between atoms: _45  and  _46
REMARK   23  A    between atoms: _55  and  _57
REMARK   24  A    between atoms: _57  and  _58
REMARK   25  A    between atoms: _57  and  _60
REMARK   26  A    between atoms: _60  and  _61
REMARK   27  A    between atoms: _66  and  _68
REMARK   28  A    between atoms: _68  and  _69
REMARK   29  A    between atoms: _68  and  _71
REMARK   30  A    between atoms: _71  and  _72
REMARK   31  A    between atoms: _77  and  _78
REMARK   32  A    between atoms: _80  and  _82
REMARK   33  A    between atoms: _82  and  _83
REMARK   34  A    between atoms: _82  and  _85
REMARK   35  A    between atoms: _85  and  _86
REMARK   36  A    between atoms: _91  and  _93
REMARK   37  A    between atoms: _93  and  _94
REMARK   38  A    between atoms: _93  and  _96
REMARK   39  A    between atoms: _96  and  _97
REMARK   40  A    between atoms: _97  and  _98
REMARK   41  A    between atoms: _103  and  _105
REMARK   42  A    between atoms: _105  and  _106
REMARK   43  A    between atoms: _105  and  _108
REMARK   44  A    between atoms: _108  and  _109
REMARK   45  A    between atoms: _109  and  _110
REMARK   46  A    between atoms: _110  and  _111
REMARK   47  A    between atoms: _120  and  _122
REMARK   48  A    between atoms: _122  and  _123
REMARK   49  A    between atoms: _122  and  _125
REMARK   50  A    between atoms: _125  and  _126
REMARK   51  A    between atoms: _129  and  _131
REMARK   52  A    between atoms: _131  and  _132
REMARK   53  A    between atoms: _131  and  _134
REMARK   54  A    between atoms: _134  and  _135
REMARK   55  A    between atoms: _138  and  _140
REMARK   56  A    between atoms: _140  and  _141
REMARK   57  A    between atoms: _140  and  _143
REMARK   58  A    between atoms: _143  and  _144
REMARK   59  A    between atoms: _147  and  _149
REMARK   60  A    between atoms: _149  and  _150
REMARK   61  A    between atoms: _149  and  _152
REMARK   62  A    between atoms: _152  and  _153
REMARK   63  A    between atoms: _156  and  _158
REMARK   64  A    between atoms: _158  and  _159
REMARK   65  A    between atoms: _162  and  _164
REMARK   66  A    between atoms: _164  and  _165
REMARK   67  A    between atoms: _164  and  _167
REMARK   68  A    between atoms: _167  and  _168
REMARK   69  A    between atoms: _171  and  _173
REMARK   70  A    between atoms: _173  and  _174
REMARK   71  A    between atoms: _173  and  _176
REMARK   72  A    between atoms: _176  and  _177
REMARK   73  A    between atoms: _182  and  _184
REMARK   74  A    between atoms: _184  and  _185
REMARK   75  A    between atoms: _184  and  _187
REMARK   76  A    between atoms: _190  and  _192
REMARK   77  A    between atoms: _192  and  _193
REMARK   78  A    between atoms: _192  and  _195
REMARK   79  A    between atoms: _195  and  _196
REMARK   80  A    between atoms: _199  and  _201
REMARK   81  A    between atoms: _201  and  _202
REMARK   82  A    between atoms: _201  and  _204
REMARK   83  A    between atoms: _204  and  _205
REMARK   84  A    between atoms: _208  and  _210
REMARK   85  A    between atoms: _210  and  _211
REMARK   86  A    between atoms: _210  and  _213
REMARK   87  A    between atoms: _213  and  _214
REMARK   88  A    between atoms: _220  and  _222
REMARK   89  A    between atoms: _222  and  _223
REMARK   90  A    between atoms: _222  and  _225
REMARK   91  A    between atoms: _225  and  _226
REMARK   92  A    between atoms: _231  and  _233
REMARK   93  A    between atoms: _233  and  _234
REMARK   94  A    between atoms: _233  and  _236
REMARK   95  A    between atoms: _236  and  _237
REMARK   96  A    between atoms: _247  and  _249
REMARK   97  A    between atoms: _249  and  _250
REMARK   98  A    between atoms: _249  and  _252
REMARK   99  A    between atoms: _252  and  _253
REMARK  100  A    between atoms: _258  and  _259
REMARK  101  A    between atoms: _261  and  _263
REMARK  102  A    between atoms: _263  and  _264
REMARK  103  A    between atoms: _267  and  _269
REMARK  104  A    between atoms: _269  and  _270
REMARK  105  A    between atoms: _269  and  _272
REMARK  106  A    between atoms: _272  and  _273
REMARK  107  A    between atoms: _279  and  _281
REMARK  108  A    between atoms: _281  and  _282
REMARK  109  A    between atoms: _281  and  _284
REMARK  110  A    between atoms: _284  and  _285
REMARK  111  A    between atoms: _290  and  _292
REMARK  112  A    between atoms: _292  and  _293
REMARK  113  A    between atoms: _292  and  _295
REMARK  114  A    between atoms: _295  and  _296
REMARK  115  A    between atoms: _301  and  _303
REMARK  116  A    between atoms: _303  and  _304
REMARK  117  A    between atoms: _303  and  _306
REMARK  118  A    between atoms: _306  and  _307
REMARK  119  A    between atoms: _307  and  _308
REMARK  120  A    between atoms: _313  and  _315
REMARK  121  A    between atoms: _315  and  _316
REMARK  122  A    between atoms: _315  and  _318
REMARK  123  A    between atoms: _318  and  _319
REMARK  124  A    between atoms: _324  and  _325
REMARK  125  A    between atoms: _327  and  _329
REMARK  126  A    between atoms: _329  and  _330
REMARK  127  A    between atoms: _329  and  _332
REMARK  128  A    between atoms: _332  and  _333
REMARK  129  A    between atoms: _336  and  _338
REMARK  130  A    between atoms: _338  and  _339
REMARK  131  A    between atoms: _342  and  _344
REMARK  132  A    between atoms: _344  and  _345
REMARK  133  A    between atoms: _344  and  _347
REMARK  134  A    between atoms: _347  and  _348
REMARK  135  A    between atoms: _350  and  _352
REMARK  136  A    between atoms: _352  and  _353
REMARK  137  A    between atoms: _352  and  _355
REMARK  138  A    between atoms: _355  and  _356
REMARK  139  A    between atoms: _361  and  _362
REMARK  140  A    between atoms: _364  and  _366
REMARK  141  A    between atoms: _366  and  _367
REMARK  142  A    between atoms: _366  and  _369
REMARK  143  A    between atoms: _369  and  _370
REMARK  144  A    between atoms: _370  and  _371
REMARK  145  A    between atoms: _373  and  _375
REMARK  146  A    between atoms: _375  and  _376
REMARK  147  A    between atoms: _375  and  _378
REMARK  148  A    between atoms: _378  and  _379
REMARK  149  A    between atoms: _379  and  _380
REMARK  150  A    between atoms: _380  and  _381
REMARK  151  A    between atoms: _381  and  _382
REMARK  152  A    between atoms: _386  and  _388
REMARK  153  A    between atoms: _388  and  _389
REMARK  154  A    between atoms: _388  and  _391
REMARK  155  A    between atoms: _391  and  _392
REMARK  156  A    between atoms: _397  and  _398
REMARK  157  A    between atoms: _400  and  _402
REMARK  158  A    between atoms: _402  and  _403
REMARK  159  A    between atoms: _402  and  _405
REMARK  160  A    between atoms: _405  and  _406
REMARK  161  A    between atoms: _408  and  _410
REMARK  162  A    between atoms: _410  and  _411
REMARK  163  A    between atoms: _414  and  _416
REMARK  164  A    between atoms: _416  and  _417
REMARK  165  A    between atoms: _416  and  _419
REMARK  166  A    between atoms: _419  and  _420
REMARK  167  A    between atoms: _423  and  _425
REMARK  168  A    between atoms: _425  and  _426
REMARK  169  A    between atoms: _425  and  _428
REMARK  170  A    between atoms: _428  and  _429
REMARK  171  A    between atoms: _439  and  _441
REMARK  172  A    between atoms: _441  and  _442
REMARK  173  A    between atoms: _441  and  _444
REMARK  174  A    between atoms: _444  and  _445
REMARK  175  A    between atoms: _445  and  _446
REMARK  176  A    between atoms: _451  and  _453
REMARK  177  A    between atoms: _453  and  _454
REMARK  178  A    between atoms: _453  and  _456
REMARK  179  A    between atoms: _459  and  _461
REMARK  180  A    between atoms: _461  and  _462
REMARK  181  A    between atoms: _461  and  _464
REMARK  182  A    between atoms: _464  and  _465
REMARK  183  A    between atoms: _468  and  _470
REMARK  184  A    between atoms: _470  and  _471
REMARK  185  A    between atoms: _474  and  _476
REMARK  186  A    between atoms: _476  and  _477
REMARK  187  A    between atoms: _476  and  _479
REMARK  188  A    between atoms: _482  and  _484
REMARK  189  A    between atoms: _484  and  _485
REMARK  190  A    between atoms: _484  and  _487
REMARK  191  A    between atoms: _487  and  _488
REMARK  192  A    between atoms: _494  and  _496
REMARK  193  A    between atoms: _496  and  _497
REMARK  194  A    between atoms: _496  and  _499
REMARK  195  A    between atoms: _499  and  _500
REMARK  196  A    between atoms: _502  and  _504
REMARK  197  A    between atoms: _504  and  _505
REMARK  198  A    between atoms: _504  and  _507
REMARK  199  A    between atoms: _507  and  _508
REMARK  200  A    between atoms: _513  and  _515
REMARK  201  A    between atoms: _515  and  _516
REMARK  202  A    between atoms: _515  and  _518
REMARK  203  A    between atoms: _518  and  _519
REMARK  204  A    between atoms: _529  and  _531
REMARK  205  A    between atoms: _531  and  _532
REMARK  206  A    between atoms: _531  and  _534
REMARK  207  A    between atoms: _534  and  _535
REMARK  208  A    between atoms: _538  and  _540
REMARK  209  A    between atoms: _540  and  _541
REMARK  210  A    between atoms: _540  and  _543
REMARK  211  A    between atoms: _543  and  _544
REMARK  212  A    between atoms: _549  and  _550
REMARK  213  A    between atoms: _552  and  _554
REMARK  214  A    between atoms: _554  and  _555
REMARK  215  A    between atoms: _554  and  _557
REMARK  216  A    between atoms: _557  and  _558
REMARK  217  A    between atoms: _561  and  _563
REMARK  218  A    between atoms: _563  and  _564
REMARK  219  A    between atoms: _563  and  _566
REMARK  220  A    between atoms: _566  and  _567
REMARK  221  A    between atoms: _567  and  _568
REMARK  222  A    between atoms: _571  and  _573
REMARK  223  A    between atoms: _573  and  _574
REMARK  224  A    between atoms: _573  and  _576
REMARK  225  A    between atoms: _576  and  _577
REMARK  226  A    between atoms: _582  and  _584
REMARK  227  A    between atoms: _584  and  _585
REMARK  228  A    between atoms: _587  and  _589
REMARK  229  A    between atoms: _589  and  _590
REMARK  230  A    between atoms: _589  and  _592
REMARK  231  A    between atoms: _592  and  _593
REMARK  232  A    between atoms: _593  and  _594
REMARK  233  A    between atoms: _596  and  _598
REMARK  234  A    between atoms: _598  and  _599
REMARK  235  A    between atoms: _598  and  _601
REMARK  236  A    between atoms: _601  and  _602
REMARK  237  A    between atoms: _605  and  _607
REMARK  238  A    between atoms: _607  and  _608
REMARK  239  A    between atoms: _607  and  _610
REMARK  240  A    between atoms: _610  and  _611
REMARK  241  A    between atoms: _621  and  _623
REMARK  242  A    between atoms: _623  and  _624
REMARK  243  A    between atoms: _623  and  _626
REMARK  244  A    between atoms: _626  and  _627
REMARK  245  A    between atoms: _629  and  _631
REMARK  246  A    between atoms: _631  and  _632
REMARK  247  A    between atoms: _631  and  _634
REMARK  248  A    between atoms: _634  and  _635
REMARK  249  A    between atoms: _640  and  _642
REMARK  250  A    between atoms: _642  and  _643
REMARK  251  A    between atoms: _642  and  _645
REMARK  252  A    between atoms: _645  and  _646
REMARK  253  A    between atoms: _652  and  _654
REMARK  254  A    between atoms: _654  and  _655
REMARK  255  A    between atoms: _654  and  _657
REMARK  256  A    between atoms: _657  and  _658
REMARK  257  A    between atoms: _658  and  _659
REMARK  258  A    between atoms: _662  and  _664
REMARK  259  A    between atoms: _664  and  _665
REMARK  260  A    between atoms: _664  and  _667
REMARK  261  A    between atoms: _667  and  _668
REMARK  262  A    between atoms: _678  and  _680
REMARK  263  A    between atoms: _680  and  _681
REMARK  264  A    between atoms: _680  and  _683
REMARK  265  A    between atoms: _683  and  _684
REMARK  266  A    between atoms: _687  and  _689
REMARK  267  A    between atoms: _689  and  _690
REMARK  268  A    between atoms: _689  and  _692
REMARK  269  A    between atoms: _692  and  _693
REMARK  270  A    between atoms: _695  and  _697
REMARK  271  A    between atoms: _697  and  _698
REMARK  272  A    between atoms: _697  and  _700
REMARK  273  A    between atoms: _700  and  _701
REMARK  274  A    between atoms: _703  and  _705
REMARK  275  A    between atoms: _705  and  _706
REMARK  276  A    between atoms: _705  and  _708
REMARK  277  A    between atoms: _708  and  _709
REMARK                            x       y       z     vdW  Elec       q    Type
REMARK                         _______ _______ _______ _____ _____    ______ ____
ROOT
ATOM      1  O   HOH     1       3.395  -7.351  37.337  0.00  0.00    +0.000 OA
ENDROOT
TORSDOF 0
REMARK  Name = ../refined-set-2016/4qll/4qll_pocket.pdb
REMARK  277 active torsions:
REMARK  status: ('A' for Active; 'I' for Inactive)
REMARK    1  A    between atoms: _1  and  _3
REMARK    2  A    between atoms: _3  and  _4
REMARK    3  A    between atoms: _3  and  _6
REMARK    4  A    between atoms: _9  and  _11
REMARK    5  A    between atoms: _11  and  _12
REMARK    6  A    between atoms: _11  and  _14
REMARK    7  A    between atoms: _14  and  _15
REMARK    8  A    between atoms: _18  and  _20
REMARK    9  A    between atoms: _20  and  _21
REMARK   10  A    between atoms: _20  and  _23
REMARK   11  A    between atoms: _23  and  _24
REMARK   12  A    between atoms: _26  and  _28
REMARK   13  A    between atoms: _28  and  _29
REMARK   14  A    between atoms: _28  and  _31
REMARK   15  A    between atoms: _31  and  _32
REMARK   16  A    between atoms: _32  and  _33
REMARK   17  A    between atoms: _38  and  _40
REMARK   18  A    between atoms: _40  and  _41
REMARK   19  A    between atoms: _40  and  _43
REMARK   20  A    between atoms: _43  and  _44
REMARK   21  A    between atoms: _44  and  _45
REMARK   22  A    between atoms: _45  and  _46
REMARK   23  A    between atoms: _55  and  _57
REMARK   24  A    between atoms: _57  and  _58
REMARK   25  A    between atoms: _57  and  _60
REMARK   26  A    between atoms: _60  and  _61
REMARK   27  A    between atoms: _66  and  _68
REMARK   28  A    between atoms: _68  and  _69
REMARK   29  A    between atoms: _68  and  _71
REMARK   30  A    between atoms: _71  and  _72
REMARK   31  A    between atoms: _77  and  _78
REMARK   32  A    between atoms: _80  and  _82
REMARK   33  A    between atoms: _82  and  _83
REMARK   34  A    between atoms: _82  and  _85
REMARK   35  A    between atoms: _85  and  _86
REMARK   36  A    between atoms: _91  and  _93
REMARK   37  A    between atoms: _93  and  _94
REMARK   38  A    between atoms: _93  and  _96
REMARK   39  A    between atoms: _96  and  _97
REMARK   40  A    between atoms: _97  and  _98
REMARK   41  A    between atoms: _103  and  _105
REMARK   42  A    between atoms: _105  and  _106
REMARK   43  A    between atoms: _105  and  _108
REMARK   44  A    between atoms: _108  and  _109
REMARK   45  A    between atoms: _109  and  _110
REMARK   46  A    between atoms: _110  and  _111
REMARK   47  A    between atoms: _120  and  _122
REMARK   48  A    between atoms: _122  and  _123
REMARK   49  A    between atoms: _122  and  _125
REMARK   50  A    between atoms: _125  and  _126
REMARK   51  A    between atoms: _129  and  _131
REMARK   52  A    between atoms: _131  and  _132
REMARK   53  A    between atoms: _131  and  _134
REMARK   54  A    between atoms: _134  and  _135
REMARK   55  A    between atoms: _138  and  _140
REMARK   56  A    between atoms: _140  and  _141
REMARK   57  A    between atoms: _140  and  _143
REMARK   58  A    between atoms: _143  and  _144
REMARK   59  A    between atoms: _147  and  _149
REMARK   60  A    between atoms: _149  and  _150
REMARK   61  A    between atoms: _149  and  _152
REMARK   62  A    between atoms: _152  and  _153
REMARK   63  A    between atoms: _156  and  _158
REMARK   64  A    between atoms: _158  and  _159
REMARK   65  A    between atoms: _162  and  _164
REMARK   66  A    between atoms: _164  and  _165
REMARK   67  A    between atoms: _164  and  _167
REMARK   68  A    between atoms: _167  and  _168
REMARK   69  A    between atoms: _171  and  _173
REMARK   70  A    between atoms: _173  and  _174
REMARK   71  A    between atoms: _173  and  _176
REMARK   72  A    between atoms: _176  and  _177
REMARK   73  A    between atoms: _182  and  _184
REMARK   74  A    between atoms: _184  and  _185
REMARK   75  A    between atoms: _184  and  _187
REMARK   76  A    between atoms: _190  and  _192
REMARK   77  A    between atoms: _192  and  _193
REMARK   78  A    between atoms: _192  and  _195
REMARK   79  A    between atoms: _195  and  _196
REMARK   80  A    between atoms: _199  and  _201
REMARK   81  A    between atoms: _201  and  _202
REMARK   82  A    between atoms: _201  and  _204
REMARK   83  A    between atoms: _204  and  _205
REMARK   84  A    between atoms: _208  and  _210
REMARK   85  A    between atoms: _210  and  _211
REMARK   86  A    between atoms: _210  and  _213
REMARK   87  A    between atoms: _213  and  _214
REMARK   88  A    between atoms: _220  and  _222
REMARK   89  A    between atoms: _222  and  _223
REMARK   90  A    between atoms: _222  and  _225
REMARK   91  A    between atoms: _225  and  _226
REMARK   92  A    between atoms: _231  and  _233
REMARK   93  A    between atoms: _233  and  _234
REMARK   94  A    between atoms: _233  and  _236
REMARK   95  A    between atoms: _236  and  _237
REMARK   96  A    between atoms: _247  and  _249
REMARK   97  A    between atoms: _249  and  _250
REMARK   98  A    between atoms: _249  and  _252
REMARK   99  A    between atoms: _252  and  _253
REMARK  100  A    between atoms: _258  and  _259
REMARK  101  A    between atoms: _261  and  _263
REMARK  102  A    between atoms: _263  and  _264
REMARK  103  A    between atoms: _267  and  _269
REMARK  104  A    between atoms: _269  and  _270
REMARK  105  A    between atoms: _269  and  _272
REMARK  106  A    between atoms: _272  and  _273
REMARK  107  A    between atoms: _279  and  _281
REMARK  108  A    between atoms: _281  and  _282
REMARK  109  A    between atoms: _281  and  _284
REMARK  110  A    between atoms: _284  and  _285
REMARK  111  A    between atoms: _290  and  _292
REMARK  112  A    between atoms: _292  and  _293
REMARK  113  A    between atoms: _292  and  _295
REMARK  114  A    between atoms: _295  and  _296
REMARK  115  A    between atoms: _301  and  _303
REMARK  116  A    between atoms: _303  and  _304
REMARK  117  A    between atoms: _303  and  _306
REMARK  118  A    between atoms: _306  and  _307
REMARK  119  A    between atoms: _307  and  _308
REMARK  120  A    between atoms: _313  and  _315
REMARK  121  A    between atoms: _315  and  _316
REMARK  122  A    between atoms: _315  and  _318
REMARK  123  A    between atoms: _318  and  _319
REMARK  124  A    between atoms: _324  and  _325
REMARK  125  A    between atoms: _327  and  _329
REMARK  126  A    between atoms: _329  and  _330
REMARK  127  A    between atoms: _329  and  _332
REMARK  128  A    between atoms: _332  and  _333
REMARK  129  A    between atoms: _336  and  _338
REMARK  130  A    between atoms: _338  and  _339
REMARK  131  A    between atoms: _342  and  _344
REMARK  132  A    between atoms: _344  and  _345
REMARK  133  A    between atoms: _344  and  _347
REMARK  134  A    between atoms: _347  and  _348
REMARK  135  A    between atoms: _350  and  _352
REMARK  136  A    between atoms: _352  and  _353
REMARK  137  A    between atoms: _352  and  _355
REMARK  138  A    between atoms: _355  and  _356
REMARK  139  A    between atoms: _361  and  _362
REMARK  140  A    between atoms: _364  and  _366
REMARK  141  A    between atoms: _366  and  _367
REMARK  142  A    between atoms: _366  and  _369
REMARK  143  A    between atoms: _369  and  _370
REMARK  144  A    between atoms: _370  and  _371
REMARK  145  A    between atoms: _373  and  _375
REMARK  146  A    between atoms: _375  and  _376
REMARK  147  A    between atoms: _375  and  _378
REMARK  148  A    between atoms: _378  and  _379
REMARK  149  A    between atoms: _379  and  _380
REMARK  150  A    between atoms: _380  and  _381
REMARK  151  A    between atoms: _381  and  _382
REMARK  152  A    between atoms: _386  and  _388
REMARK  153  A    between atoms: _388  and  _389
REMARK  154  A    between atoms: _388  and  _391
REMARK  155  A    between atoms: _391  and  _392
REMARK  156  A    between atoms: _397  and  _398
REMARK  157  A    between atoms: _400  and  _402
REMARK  158  A    between atoms: _402  and  _403
REMARK  159  A    between atoms: _402  and  _405
REMARK  160  A    between atoms: _405  and  _406
REMARK  161  A    between atoms: _408  and  _410
REMARK  162  A    between atoms: _410  and  _411
REMARK  163  A    between atoms: _414  and  _416
REMARK  164  A    between atoms: _416  and  _417
REMARK  165  A    between atoms: _416  and  _419
REMARK  166  A    between atoms: _419  and  _420
REMARK  167  A    between atoms: _423  and  _425
REMARK  168  A    between atoms: _425  and  _426
REMARK  169  A    between atoms: _425  and  _428
REMARK  170  A    between atoms: _428  and  _429
REMARK  171  A    between atoms: _439  and  _441
REMARK  172  A    between atoms: _441  and  _442
REMARK  173  A    between atoms: _441  and  _444
REMARK  174  A    between atoms: _444  and  _445
REMARK  175  A    between atoms: _445  and  _446
REMARK  176  A    between atoms: _451  and  _453
REMARK  177  A    between atoms: _453  and  _454
REMARK  178  A    between atoms: _453  and  _456
REMARK  179  A    between atoms: _459  and  _461
REMARK  180  A    between atoms: _461  and  _462
REMARK  181  A    between atoms: _461  and  _464
REMARK  182  A    between atoms: _464  and  _465
REMARK  183  A    between atoms: _468  and  _470
REMARK  184  A    between atoms: _470  and  _471
REMARK  185  A    between atoms: _474  and  _476
REMARK  186  A    between atoms: _476  and  _477
REMARK  187  A    between atoms: _476  and  _479
REMARK  188  A    between atoms: _482  and  _484
REMARK  189  A    between atoms: _484  and  _485
REMARK  190  A    between atoms: _484  and  _487
REMARK  191  A    between atoms: _487  and  _488
REMARK  192  A    between atoms: _494  and  _496
REMARK  193  A    between atoms: _496  and  _497
REMARK  194  A    between atoms: _496  and  _499
REMARK  195  A    between atoms: _499  and  _500
REMARK  196  A    between atoms: _502  and  _504
REMARK  197  A    between atoms: _504  and  _505
REMARK  198  A    between atoms: _504  and  _507
REMARK  199  A    between atoms: _507  and  _508
REMARK  200  A    between atoms: _513  and  _515
REMARK  201  A    between atoms: _515  and  _516
REMARK  202  A    between atoms: _515  and  _518
REMARK  203  A    between atoms: _518  and  _519
REMARK  204  A    between atoms: _529  and  _531
REMARK  205  A    between atoms: _531  and  _532
REMARK  206  A    between atoms: _531  and  _534
REMARK  207  A    between atoms: _534  and  _535
REMARK  208  A    between atoms: _538  and  _540
REMARK  209  A    between atoms: _540  and  _541
REMARK  210  A    between atoms: _540  and  _543
REMARK  211  A    between atoms: _543  and  _544
REMARK  212  A    between atoms: _549  and  _550
REMARK  213  A    between atoms: _552  and  _554
REMARK  214  A    between atoms: _554  and  _555
REMARK  215  A    between atoms: _554  and  _557
REMARK  216  A    between atoms: _557  and  _558
REMARK  217  A    between atoms: _561  and  _563
REMARK  218  A    between atoms: _563  and  _564
REMARK  219  A    between atoms: _563  and  _566
REMARK  220  A    between atoms: _566  and  _567
REMARK  221  A    between atoms: _567  and  _568
REMARK  222  A    between atoms: _571  and  _573
REMARK  223  A    between atoms: _573  and  _574
REMARK  224  A    between atoms: _573  and  _576
REMARK  225  A    between atoms: _576  and  _577
REMARK  226  A    between atoms: _582  and  _584
REMARK  227  A    between atoms: _584  and  _585
REMARK  228  A    between atoms: _587  and  _589
REMARK  229  A    between atoms: _589  and  _590
REMARK  230  A    between atoms: _589  and  _592
REMARK  231  A    between atoms: _592  and  _593
REMARK  232  A    between atoms: _593  and  _594
REMARK  233  A    between atoms: _596  and  _598
REMARK  234  A    between atoms: _598  and  _599
REMARK  235  A    between atoms: _598  and  _601
REMARK  236  A    between atoms: _601  and  _602
REMARK  237  A    between atoms: _605  and  _607
REMARK  238  A    between atoms: _607  and  _608
REMARK  239  A    between atoms: _607  and  _610
REMARK  240  A    between atoms: _610  and  _611
REMARK  241  A    between atoms: _621  and  _623
REMARK  242  A    between atoms: _623  and  _624
REMARK  243  A    between atoms: _623  and  _626
REMARK  244  A    between atoms: _626  and  _627
REMARK  245  A    between atoms: _629  and  _631
REMARK  246  A    between atoms: _631  and  _632
REMARK  247  A    between atoms: _631  and  _634
REMARK  248  A    between atoms: _634  and  _635
REMARK  249  A    between atoms: _640  and  _642
REMARK  250  A    between atoms: _642  and  _643
REMARK  251  A    between atoms: _642  and  _645
REMARK  252  A    between atoms: _645  and  _646
REMARK  253  A    between atoms: _652  and  _654
REMARK  254  A    between atoms: _654  and  _655
REMARK  255  A    between atoms: _654  and  _657
REMARK  256  A    between atoms: _657  and  _658
REMARK  257  A    between atoms: _658  and  _659
REMARK  258  A    between atoms: _662  and  _664
REMARK  259  A    between atoms: _664  and  _665
REMARK  260  A    between atoms: _664  and  _667
REMARK  261  A    between atoms: _667  and  _668
REMARK  262  A    between atoms: _678  and  _680
REMARK  263  A    between atoms: _680  and  _681
REMARK  264  A    between atoms: _680  and  _683
REMARK  265  A    between atoms: _683  and  _684
REMARK  266  A    between atoms: _687  and  _689
REMARK  267  A    between atoms: _689  and  _690
REMARK  268  A    between atoms: _689  and  _692
REMARK  269  A    between atoms: _692  and  _693
REMARK  270  A    between atoms: _695  and  _697
REMARK  271  A    between atoms: _697  and  _698
REMARK  272  A    between atoms: _697  and  _700
REMARK  273  A    between atoms: _700  and  _701
REMARK  274  A    between atoms: _703  and  _705
REMARK  275  A    between atoms: _705  and  _706
REMARK  276  A    between atoms: _705  and  _708
REMARK  277  A    between atoms: _708  and  _709
REMARK                            x       y       z     vdW  Elec       q    Type
REMARK                         _______ _______ _______ _____ _____    ______ ____
ROOT
ATOM      1  O   HOH     1      -0.559   0.439  36.931  0.00  0.00    +0.000 OA
ENDROOT
TORSDOF 0
REMARK  Name = ../refined-set-2016/4qll/4qll_pocket.pdb
REMARK  277 active torsions:
REMARK  status: ('A' for Active; 'I' for Inactive)
REMARK    1  A    between atoms: _1  and  _3
REMARK    2  A    between atoms: _3  and  _4
REMARK    3  A    between atoms: _3  and  _6
REMARK    4  A    between atoms: _9  and  _11
REMARK    5  A    between atoms: _11  and  _12
REMARK    6  A    between atoms: _11  and  _14
REMARK    7  A    between atoms: _14  and  _15
REMARK    8  A    between atoms: _18  and  _20
REMARK    9  A    between atoms: _20  and  _21
REMARK   10  A    between atoms: _20  and  _23
REMARK   11  A    between atoms: _23  and  _24
REMARK   12  A    between atoms: _26  and  _28
REMARK   13  A    between atoms: _28  and  _29
REMARK   14  A    between atoms: _28  and  _31
REMARK   15  A    between atoms: _31  and  _32
REMARK   16  A    between atoms: _32  and  _33
REMARK   17  A    between atoms: _38  and  _40
REMARK   18  A    between atoms: _40  and  _41
REMARK   19  A    between atoms: _40  and  _43
REMARK   20  A    between atoms: _43  and  _44
REMARK   21  A    between atoms: _44  and  _45
REMARK   22  A    between atoms: _45  and  _46
REMARK   23  A    between atoms: _55  and  _57
REMARK   24  A    between atoms: _57  and  _58
REMARK   25  A    between atoms: _57  and  _60
REMARK   26  A    between atoms: _60  and  _61
REMARK   27  A    between atoms: _66  and  _68
REMARK   28  A    between atoms: _68  and  _69
REMARK   29  A    between atoms: _68  and  _71
REMARK   30  A    between atoms: _71  and  _72
REMARK   31  A    between atoms: _77  and  _78
REMARK   32  A    between atoms: _80  and  _82
REMARK   33  A    between atoms: _82  and  _83
REMARK   34  A    between atoms: _82  and  _85
REMARK   35  A    between atoms: _85  and  _86
REMARK   36  A    between atoms: _91  and  _93
REMARK   37  A    between atoms: _93  and  _94
REMARK   38  A    between atoms: _93  and  _96
REMARK   39  A    between atoms: _96  and  _97
REMARK   40  A    between atoms: _97  and  _98
REMARK   41  A    between atoms: _103  and  _105
REMARK   42  A    between atoms: _105  and  _106
REMARK   43  A    between atoms: _105  and  _108
REMARK   44  A    between atoms: _108  and  _109
REMARK   45  A    between atoms: _109  and  _110
REMARK   46  A    between atoms: _110  and  _111
REMARK   47  A    between atoms: _120  and  _122
REMARK   48  A    between atoms: _122  and  _123
REMARK   49  A    between atoms: _122  and  _125
REMARK   50  A    between atoms: _125  and  _126
REMARK   51  A    between atoms: _129  and  _131
REMARK   52  A    between atoms: _131  and  _132
REMARK   53  A    between atoms: _131  and  _134
REMARK   54  A    between atoms: _134  and  _135
REMARK   55  A    between atoms: _138  and  _140
REMARK   56  A    between atoms: _140  and  _141
REMARK   57  A    between atoms: _140  and  _143
REMARK   58  A    between atoms: _143  and  _144
REMARK   59  A    between atoms: _147  and  _149
REMARK   60  A    between atoms: _149  and  _150
REMARK   61  A    between atoms: _149  and  _152
REMARK   62  A    between atoms: _152  and  _153
REMARK   63  A    between atoms: _156  and  _158
REMARK   64  A    between atoms: _158  and  _159
REMARK   65  A    between atoms: _162  and  _164
REMARK   66  A    between atoms: _164  and  _165
REMARK   67  A    between atoms: _164  and  _167
REMARK   68  A    between atoms: _167  and  _168
REMARK   69  A    between atoms: _171  and  _173
REMARK   70  A    between atoms: _173  and  _174
REMARK   71  A    between atoms: _173  and  _176
REMARK   72  A    between atoms: _176  and  _177
REMARK   73  A    between atoms: _182  and  _184
REMARK   74  A    between atoms: _184  and  _185
REMARK   75  A    between atoms: _184  and  _187
REMARK   76  A    between atoms: _190  and  _192
REMARK   77  A    between atoms: _192  and  _193
REMARK   78  A    between atoms: _192  and  _195
REMARK   79  A    between atoms: _195  and  _196
REMARK   80  A    between atoms: _199  and  _201
REMARK   81  A    between atoms: _201  and  _202
REMARK   82  A    between atoms: _201  and  _204
REMARK   83  A    between atoms: _204  and  _205
REMARK   84  A    between atoms: _208  and  _210
REMARK   85  A    between atoms: _210  and  _211
REMARK   86  A    between atoms: _210  and  _213
REMARK   87  A    between atoms: _213  and  _214
REMARK   88  A    between atoms: _220  and  _222
REMARK   89  A    between atoms: _222  and  _223
REMARK   90  A    between atoms: _222  and  _225
REMARK   91  A    between atoms: _225  and  _226
REMARK   92  A    between atoms: _231  and  _233
REMARK   93  A    between atoms: _233  and  _234
REMARK   94  A    between atoms: _233  and  _236
REMARK   95  A    between atoms: _236  and  _237
REMARK   96  A    between atoms: _247  and  _249
REMARK   97  A    between atoms: _249  and  _250
REMARK   98  A    between atoms: _249  and  _252
REMARK   99  A    between atoms: _252  and  _253
REMARK  100  A    between atoms: _258  and  _259
REMARK  101  A    between atoms: _261  and  _263
REMARK  102  A    between atoms: _263  and  _264
REMARK  103  A    between atoms: _267  and  _269
REMARK  104  A    between atoms: _269  and  _270
REMARK  105  A    between atoms: _269  and  _272
REMARK  106  A    between atoms: _272  and  _273
REMARK  107  A    between atoms: _279  and  _281
REMARK  108  A    between atoms: _281  and  _282
REMARK  109  A    between atoms: _281  and  _284
REMARK  110  A    between atoms: _284  and  _285
REMARK  111  A    between atoms: _290  and  _292
REMARK  112  A    between atoms: _292  and  _293
REMARK  113  A    between atoms: _292  and  _295
REMARK  114  A    between atoms: _295  and  _296
REMARK  115  A    between atoms: _301  and  _303
REMARK  116  A    between atoms: _303  and  _304
REMARK  117  A    between atoms: _303  and  _306
REMARK  118  A    between atoms: _306  and  _307
REMARK  119  A    between atoms: _307  and  _308
REMARK  120  A    between atoms: _313  and  _315
REMARK  121  A    between atoms: _315  and  _316
REMARK  122  A    between atoms: _315  and  _318
REMARK  123  A    between atoms: _318  and  _319
REMARK  124  A    between atoms: _324  and  _325
REMARK  125  A    between atoms: _327  and  _329
REMARK  126  A    between atoms: _329  and  _330
REMARK  127  A    between atoms: _329  and  _332
REMARK  128  A    between atoms: _332  and  _333
REMARK  129  A    between atoms: _336  and  _338
REMARK  130  A    between atoms: _338  and  _339
REMARK  131  A    between atoms: _342  and  _344
REMARK  132  A    between atoms: _344  and  _345
REMARK  133  A    between atoms: _344  and  _347
REMARK  134  A    between atoms: _347  and  _348
REMARK  135  A    between atoms: _350  and  _352
REMARK  136  A    between atoms: _352  and  _353
REMARK  137  A    between atoms: _352  and  _355
REMARK  138  A    between atoms: _355  and  _356
REMARK  139  A    between atoms: _361  and  _362
REMARK  140  A    between atoms: _364  and  _366
REMARK  141  A    between atoms: _366  and  _367
REMARK  142  A    between atoms: _366  and  _369
REMARK  143  A    between atoms: _369  and  _370
REMARK  144  A    between atoms: _370  and  _371
REMARK  145  A    between atoms: _373  and  _375
REMARK  146  A    between atoms: _375  and  _376
REMARK  147  A    between atoms: _375  and  _378
REMARK  148  A    between atoms: _378  and  _379
REMARK  149  A    between atoms: _379  and  _380
REMARK  150  A    between atoms: _380  and  _381
REMARK  151  A    between atoms: _381  and  _382
REMARK  152  A    between atoms: _386  and  _388
REMARK  153  A    between atoms: _388  and  _389
REMARK  154  A    between atoms: _388  and  _391
REMARK  155  A    between atoms: _391  and  _392
REMARK  156  A    between atoms: _397  and  _398
REMARK  157  A    between atoms: _400  and  _402
REMARK  158  A    between atoms: _402  and  _403
REMARK  159  A    between atoms: _402  and  _405
REMARK  160  A    between atoms: _405  and  _406
REMARK  161  A    between atoms: _408  and  _410
REMARK  162  A    between atoms: _410  and  _411
REMARK  163  A    between atoms: _414  and  _416
REMARK  164  A    between atoms: _416  and  _417
REMARK  165  A    between atoms: _416  and  _419
REMARK  166  A    between atoms: _419  and  _420
REMARK  167  A    between atoms: _423  and  _425
REMARK  168  A    between atoms: _425  and  _426
REMARK  169  A    between atoms: _425  and  _428
REMARK  170  A    between atoms: _428  and  _429
REMARK  171  A    between atoms: _439  and  _441
REMARK  172  A    between atoms: _441  and  _442
REMARK  173  A    between atoms: _441  and  _444
REMARK  174  A    between atoms: _444  and  _445
REMARK  175  A    between atoms: _445  and  _446
REMARK  176  A    between atoms: _451  and  _453
REMARK  177  A    between atoms: _453  and  _454
REMARK  178  A    between atoms: _453  and  _456
REMARK  179  A    between atoms: _459  and  _461
REMARK  180  A    between atoms: _461  and  _462
REMARK  181  A    between atoms: _461  and  _464
REMARK  182  A    between atoms: _464  and  _465
REMARK  183  A    between atoms: _468  and  _470
REMARK  184  A    between atoms: _470  and  _471
REMARK  185  A    between atoms: _474  and  _476
REMARK  186  A    between atoms: _476  and  _477
REMARK  187  A    between atoms: _476  and  _479
REMARK  188  A    between atoms: _482  and  _484
REMARK  189  A    between atoms: _484  and  _485
REMARK  190  A    between atoms: _484  and  _487
REMARK  191  A    between atoms: _487  and  _488
REMARK  192  A    between atoms: _494  and  _496
REMARK  193  A    between atoms: _496  and  _497
REMARK  194  A    between atoms: _496  and  _499
REMARK  195  A    between atoms: _499  and  _500
REMARK  196  A    between atoms: _502  and  _504
REMARK  197  A    between atoms: _504  and  _505
REMARK  198  A    between atoms: _504  and  _507
REMARK  199  A    between atoms: _507  and  _508
REMARK  200  A    between atoms: _513  and  _515
REMARK  201  A    between atoms: _515  and  _516
REMARK  202  A    between atoms: _515  and  _518
REMARK  203  A    between atoms: _518  and  _519
REMARK  204  A    between atoms: _529  and  _531
REMARK  205  A    between atoms: _531  and  _532
REMARK  206  A    between atoms: _531  and  _534
REMARK  207  A    between atoms: _534  and  _535
REMARK  208  A    between atoms: _538  and  _540
REMARK  209  A    between atoms: _540  and  _541
REMARK  210  A    between atoms: _540  and  _543
REMARK  211  A    between atoms: _543  and  _544
REMARK  212  A    between atoms: _549  and  _550
REMARK  213  A    between atoms: _552  and  _554
REMARK  214  A    between atoms: _554  and  _555
REMARK  215  A    between atoms: _554  and  _557
REMARK  216  A    between atoms: _557  and  _558
REMARK  217  A    between atoms: _561  and  _563
REMARK  218  A    between atoms: _563  and  _564
REMARK  219  A    between atoms: _563  and  _566
REMARK  220  A    between atoms: _566  and  _567
REMARK  221  A    between atoms: _567  and  _568
REMARK  222  A    between atoms: _571  and  _573
REMARK  223  A    between atoms: _573  and  _574
REMARK  224  A    between atoms: _573  and  _576
REMARK  225  A    between atoms: _576  and  _577
REMARK  226  A    between atoms: _582  and  _584
REMARK  227  A    between atoms: _584  and  _585
REMARK  228  A    between atoms: _587  and  _589
REMARK  229  A    between atoms: _589  and  _590
REMARK  230  A    between atoms: _589  and  _592
REMARK  231  A    between atoms: _592  and  _593
REMARK  232  A    between atoms: _593  and  _594
REMARK  233  A    between atoms: _596  and  _598
REMARK  234  A    between atoms: _598  and  _599
REMARK  235  A    between atoms: _598  and  _601
REMARK  236  A    between atoms: _601  and  _602
REMARK  237  A    between atoms: _605  and  _607
REMARK  238  A    between atoms: _607  and  _608
REMARK  239  A    between atoms: _607  and  _610
REMARK  240  A    between atoms: _610  and  _611
REMARK  241  A    between atoms: _621  and  _623
REMARK  242  A    between atoms: _623  and  _624
REMARK  243  A    between atoms: _623  and  _626
REMARK  244  A    between atoms: _626  and  _627
REMARK  245  A    between atoms: _629  and  _631
REMARK  246  A    between atoms: _631  and  _632
REMARK  247  A    between atoms: _631  and  _634
REMARK  248  A    between atoms: _634  and  _635
REMARK  249  A    between atoms: _640  and  _642
REMARK  250  A    between atoms: _642  and  _643
REMARK  251  A    between atoms: _642  and  _645
REMARK  252  A    between atoms: _645  and  _646
REMARK  253  A    between atoms: _652  and  _654
REMARK  254  A    between atoms: _654  and  _655
REMARK  255  A    between atoms: _654  and  _657
REMARK  256  A    between atoms: _657  and  _658
REMARK  257  A    between atoms: _658  and  _659
REMARK  258  A    between atoms: _662  and  _664
REMARK  259  A    between atoms: _664  and  _665
REMARK  260  A    between atoms: _664  and  _667
REMARK  261  A    between atoms: _667  and  _668
REMARK  262  A    between atoms: _678  and  _680
REMARK  263  A    between atoms: _680  and  _681
REMARK  264  A    between atoms: _680  and  _683
REMARK  265  A    between atoms: _683  and  _684
REMARK  266  A    between atoms: _687  and  _689
REMARK  267  A    between atoms: _689  and  _690
REMARK  268  A    between atoms: _689  and  _692
REMARK  269  A    between atoms: _692  and  _693
REMARK  270  A    between atoms: _695  and  _697
REMARK  271  A    between atoms: _697  and  _698
REMARK  272  A    between atoms: _697  and  _700
REMARK  273  A    between atoms: _700  and  _701
REMARK  274  A    between atoms: _703  and  _705
REMARK  275  A    between atoms: _705  and  _706
REMARK  276  A    between atoms: _705  and  _708
REMARK  277  A    between atoms: _708  and  _709
REMARK                            x       y       z     vdW  Elec       q    Type
REMARK                         _______ _______ _______ _____ _____    ______ ____
ROOT
ATOM      1  O   HOH     1      -1.360  -3.374  38.676  0.00  0.00    +0.000 OA
ENDROOT
TORSDOF 0
REMARK  Name = ../refined-set-2016/4qll/4qll_pocket.pdb
REMARK  277 active torsions:
REMARK  status: ('A' for Active; 'I' for Inactive)
REMARK    1  A    between atoms: _1  and  _3
REMARK    2  A    between atoms: _3  and  _4
REMARK    3  A    between atoms: _3  and  _6
REMARK    4  A    between atoms: _9  and  _11
REMARK    5  A    between atoms: _11  and  _12
REMARK    6  A    between atoms: _11  and  _14
REMARK    7  A    between atoms: _14  and  _15
REMARK    8  A    between atoms: _18  and  _20
REMARK    9  A    between atoms: _20  and  _21
REMARK   10  A    between atoms: _20  and  _23
REMARK   11  A    between atoms: _23  and  _24
REMARK   12  A    between atoms: _26  and  _28
REMARK   13  A    between atoms: _28  and  _29
REMARK   14  A    between atoms: _28  and  _31
REMARK   15  A    between atoms: _31  and  _32
REMARK   16  A    between atoms: _32  and  _33
REMARK   17  A    between atoms: _38  and  _40
REMARK   18  A    between atoms: _40  and  _41
REMARK   19  A    between atoms: _40  and  _43
REMARK   20  A    between atoms: _43  and  _44
REMARK   21  A    between atoms: _44  and  _45
REMARK   22  A    between atoms: _45  and  _46
REMARK   23  A    between atoms: _55  and  _57
REMARK   24  A    between atoms: _57  and  _58
REMARK   25  A    between atoms: _57  and  _60
REMARK   26  A    between atoms: _60  and  _61
REMARK   27  A    between atoms: _66  and  _68
REMARK   28  A    between atoms: _68  and  _69
REMARK   29  A    between atoms: _68  and  _71
REMARK   30  A    between atoms: _71  and  _72
REMARK   31  A    between atoms: _77  and  _78
REMARK   32  A    between atoms: _80  and  _82
REMARK   33  A    between atoms: _82  and  _83
REMARK   34  A    between atoms: _82  and  _85
REMARK   35  A    between atoms: _85  and  _86
REMARK   36  A    between atoms: _91  and  _93
REMARK   37  A    between atoms: _93  and  _94
REMARK   38  A    between atoms: _93  and  _96
REMARK   39  A    between atoms: _96  and  _97
REMARK   40  A    between atoms: _97  and  _98
REMARK   41  A    between atoms: _103  and  _105
REMARK   42  A    between atoms: _105  and  _106
REMARK   43  A    between atoms: _105  and  _108
REMARK   44  A    between atoms: _108  and  _109
REMARK   45  A    between atoms: _109  and  _110
REMARK   46  A    between atoms: _110  and  _111
REMARK   47  A    between atoms: _120  and  _122
REMARK   48  A    between atoms: _122  and  _123
REMARK   49  A    between atoms: _122  and  _125
REMARK   50  A    between atoms: _125  and  _126
REMARK   51  A    between atoms: _129  and  _131
REMARK   52  A    between atoms: _131  and  _132
REMARK   53  A    between atoms: _131  and  _134
REMARK   54  A    between atoms: _134  and  _135
REMARK   55  A    between atoms: _138  and  _140
REMARK   56  A    between atoms: _140  and  _141
REMARK   57  A    between atoms: _140  and  _143
REMARK   58  A    between atoms: _143  and  _144
REMARK   59  A    between atoms: _147  and  _149
REMARK   60  A    between atoms: _149  and  _150
REMARK   61  A    between atoms: _149  and  _152
REMARK   62  A    between atoms: _152  and  _153
REMARK   63  A    between atoms: _156  and  _158
REMARK   64  A    between atoms: _158  and  _159
REMARK   65  A    between atoms: _162  and  _164
REMARK   66  A    between atoms: _164  and  _165
REMARK   67  A    between atoms: _164  and  _167
REMARK   68  A    between atoms: _167  and  _168
REMARK   69  A    between atoms: _171  and  _173
REMARK   70  A    between atoms: _173  and  _174
REMARK   71  A    between atoms: _173  and  _176
REMARK   72  A    between atoms: _176  and  _177
REMARK   73  A    between atoms: _182  and  _184
REMARK   74  A    between atoms: _184  and  _185
REMARK   75  A    between atoms: _184  and  _187
REMARK   76  A    between atoms: _190  and  _192
REMARK   77  A    between atoms: _192  and  _193
REMARK   78  A    between atoms: _192  and  _195
REMARK   79  A    between atoms: _195  and  _196
REMARK   80  A    between atoms: _199  and  _201
REMARK   81  A    between atoms: _201  and  _202
REMARK   82  A    between atoms: _201  and  _204
REMARK   83  A    between atoms: _204  and  _205
REMARK   84  A    between atoms: _208  and  _210
REMARK   85  A    between atoms: _210  and  _211
REMARK   86  A    between atoms: _210  and  _213
REMARK   87  A    between atoms: _213  and  _214
REMARK   88  A    between atoms: _220  and  _222
REMARK   89  A    between atoms: _222  and  _223
REMARK   90  A    between atoms: _222  and  _225
REMARK   91  A    between atoms: _225  and  _226
REMARK   92  A    between atoms: _231  and  _233
REMARK   93  A    between atoms: _233  and  _234
REMARK   94  A    between atoms: _233  and  _236
REMARK   95  A    between atoms: _236  and  _237
REMARK   96  A    between atoms: _247  and  _249
REMARK   97  A    between atoms: _249  and  _250
REMARK   98  A    between atoms: _249  and  _252
REMARK   99  A    between atoms: _252  and  _253
REMARK  100  A    between atoms: _258  and  _259
REMARK  101  A    between atoms: _261  and  _263
REMARK  102  A    between atoms: _263  and  _264
REMARK  103  A    between atoms: _267  and  _269
REMARK  104  A    between atoms: _269  and  _270
REMARK  105  A    between atoms: _269  and  _272
REMARK  106  A    between atoms: _272  and  _273
REMARK  107  A    between atoms: _279  and  _281
REMARK  108  A    between atoms: _281  and  _282
REMARK  109  A    between atoms: _281  and  _284
REMARK  110  A    between atoms: _284  and  _285
REMARK  111  A    between atoms: _290  and  _292
REMARK  112  A    between atoms: _292  and  _293
REMARK  113  A    between atoms: _292  and  _295
REMARK  114  A    between atoms: _295  and  _296
REMARK  115  A    between atoms: _301  and  _303
REMARK  116  A    between atoms: _303  and  _304
REMARK  117  A    between atoms: _303  and  _306
REMARK  118  A    between atoms: _306  and  _307
REMARK  119  A    between atoms: _307  and  _308
REMARK  120  A    between atoms: _313  and  _315
REMARK  121  A    between atoms: _315  and  _316
REMARK  122  A    between atoms: _315  and  _318
REMARK  123  A    between atoms: _318  and  _319
REMARK  124  A    between atoms: _324  and  _325
REMARK  125  A    between atoms: _327  and  _329
REMARK  126  A    between atoms: _329  and  _330
REMARK  127  A    between atoms: _329  and  _332
REMARK  128  A    between atoms: _332  and  _333
REMARK  129  A    between atoms: _336  and  _338
REMARK  130  A    between atoms: _338  and  _339
REMARK  131  A    between atoms: _342  and  _344
REMARK  132  A    between atoms: _344  and  _345
REMARK  133  A    between atoms: _344  and  _347
REMARK  134  A    between atoms: _347  and  _348
REMARK  135  A    between atoms: _350  and  _352
REMARK  136  A    between atoms: _352  and  _353
REMARK  137  A    between atoms: _352  and  _355
REMARK  138  A    between atoms: _355  and  _356
REMARK  139  A    between atoms: _361  and  _362
REMARK  140  A    between atoms: _364  and  _366
REMARK  141  A    between atoms: _366  and  _367
REMARK  142  A    between atoms: _366  and  _369
REMARK  143  A    between atoms: _369  and  _370
REMARK  144  A    between atoms: _370  and  _371
REMARK  145  A    between atoms: _373  and  _375
REMARK  146  A    between atoms: _375  and  _376
REMARK  147  A    between atoms: _375  and  _378
REMARK  148  A    between atoms: _378  and  _379
REMARK  149  A    between atoms: _379  and  _380
REMARK  150  A    between atoms: _380  and  _381
REMARK  151  A    between atoms: _381  and  _382
REMARK  152  A    between atoms: _386  and  _388
REMARK  153  A    between atoms: _388  and  _389
REMARK  154  A    between atoms: _388  and  _391
REMARK  155  A    between atoms: _391  and  _392
REMARK  156  A    between atoms: _397  and  _398
REMARK  157  A    between atoms: _400  and  _402
REMARK  158  A    between atoms: _402  and  _403
REMARK  159  A    between atoms: _402  and  _405
REMARK  160  A    between atoms: _405  and  _406
REMARK  161  A    between atoms: _408  and  _410
REMARK  162  A    between atoms: _410  and  _411
REMARK  163  A    between atoms: _414  and  _416
REMARK  164  A    between atoms: _416  and  _417
REMARK  165  A    between atoms: _416  and  _419
REMARK  166  A    between atoms: _419  and  _420
REMARK  167  A    between atoms: _423  and  _425
REMARK  168  A    between atoms: _425  and  _426
REMARK  169  A    between atoms: _425  and  _428
REMARK  170  A    between atoms: _428  and  _429
REMARK  171  A    between atoms: _439  and  _441
REMARK  172  A    between atoms: _441  and  _442
REMARK  173  A    between atoms: _441  and  _444
REMARK  174  A    between atoms: _444  and  _445
REMARK  175  A    between atoms: _445  and  _446
REMARK  176  A    between atoms: _451  and  _453
REMARK  177  A    between atoms: _453  and  _454
REMARK  178  A    between atoms: _453  and  _456
REMARK  179  A    between atoms: _459  and  _461
REMARK  180  A    between atoms: _461  and  _462
REMARK  181  A    between atoms: _461  and  _464
REMARK  182  A    between atoms: _464  and  _465
REMARK  183  A    between atoms: _468  and  _470
REMARK  184  A    between atoms: _470  and  _471
REMARK  185  A    between atoms: _474  and  _476
REMARK  186  A    between atoms: _476  and  _477
REMARK  187  A    between atoms: _476  and  _479
REMARK  188  A    between atoms: _482  and  _484
REMARK  189  A    between atoms: _484  and  _485
REMARK  190  A    between atoms: _484  and  _487
REMARK  191  A    between atoms: _487  and  _488
REMARK  192  A    between atoms: _494  and  _496
REMARK  193  A    between atoms: _496  and  _497
REMARK  194  A    between atoms: _496  and  _499
REMARK  195  A    between atoms: _499  and  _500
REMARK  196  A    between atoms: _502  and  _504
REMARK  197  A    between atoms: _504  and  _505
REMARK  198  A    between atoms: _504  and  _507
REMARK  199  A    between atoms: _507  and  _508
REMARK  200  A    between atoms: _513  and  _515
REMARK  201  A    between atoms: _515  and  _516
REMARK  202  A    between atoms: _515  and  _518
REMARK  203  A    between atoms: _518  and  _519
REMARK  204  A    between atoms: _529  and  _531
REMARK  205  A    between atoms: _531  and  _532
REMARK  206  A    between atoms: _531  and  _534
REMARK  207  A    between atoms: _534  and  _535
REMARK  208  A    between atoms: _538  and  _540
REMARK  209  A    between atoms: _540  and  _541
REMARK  210  A    between atoms: _540  and  _543
REMARK  211  A    between atoms: _543  and  _544
REMARK  212  A    between atoms: _549  and  _550
REMARK  213  A    between atoms: _552  and  _554
REMARK  214  A    between atoms: _554  and  _555
REMARK  215  A    between atoms: _554  and  _557
REMARK  216  A    between atoms: _557  and  _558
REMARK  217  A    between atoms: _561  and  _563
REMARK  218  A    between atoms: _563  and  _564
REMARK  219  A    between atoms: _563  and  _566
REMARK  220  A    between atoms: _566  and  _567
REMARK  221  A    between atoms: _567  and  _568
REMARK  222  A    between atoms: _571  and  _573
REMARK  223  A    between atoms: _573  and  _574
REMARK  224  A    between atoms: _573  and  _576
REMARK  225  A    between atoms: _576  and  _577
REMARK  226  A    between atoms: _582  and  _584
REMARK  227  A    between atoms: _584  and  _585
REMARK  228  A    between atoms: _587  and  _589
REMARK  229  A    between atoms: _589  and  _590
REMARK  230  A    between atoms: _589  and  _592
REMARK  231  A    between atoms: _592  and  _593
REMARK  232  A    between atoms: _593  and  _594
REMARK  233  A    between atoms: _596  and  _598
REMARK  234  A    between atoms: _598  and  _599
REMARK  235  A    between atoms: _598  and  _601
REMARK  236  A    between atoms: _601  and  _602
REMARK  237  A    between atoms: _605  and  _607
REMARK  238  A    between atoms: _607  and  _608
REMARK  239  A    between atoms: _607  and  _610
REMARK  240  A    between atoms: _610  and  _611
REMARK  241  A    between atoms: _621  and  _623
REMARK  242  A    between atoms: _623  and  _624
REMARK  243  A    between atoms: _623  and  _626
REMARK  244  A    between atoms: _626  and  _627
REMARK  245  A    between atoms: _629  and  _631
REMARK  246  A    between atoms: _631  and  _632
REMARK  247  A    between atoms: _631  and  _634
REMARK  248  A    between atoms: _634  and  _635
REMARK  249  A    between atoms: _640  and  _642
REMARK  250  A    between atoms: _642  and  _643
REMARK  251  A    between atoms: _642  and  _645
REMARK  252  A    between atoms: _645  and  _646
REMARK  253  A    between atoms: _652  and  _654
REMARK  254  A    between atoms: _654  and  _655
REMARK  255  A    between atoms: _654  and  _657
REMARK  256  A    between atoms: _657  and  _658
REMARK  257  A    between atoms: _658  and  _659
REMARK  258  A    between atoms: _662  and  _664
REMARK  259  A    between atoms: _664  and  _665
REMARK  260  A    between atoms: _664  and  _667
REMARK  261  A    between atoms: _667  and  _668
REMARK  262  A    between atoms: _678  and  _680
REMARK  263  A    between atoms: _680  and  _681
REMARK  264  A    between atoms: _680  and  _683
REMARK  265  A    between atoms: _683  and  _684
REMARK  266  A    between atoms: _687  and  _689
REMARK  267  A    between atoms: _689  and  _690
REMARK  268  A    between atoms: _689  and  _692
REMARK  269  A    between atoms: _692  and  _693
REMARK  270  A    between atoms: _695  and  _697
REMARK  271  A    between atoms: _697  and  _698
REMARK  272  A    between atoms: _697  and  _700
REMARK  273  A    between atoms: _700  and  _701
REMARK  274  A    between atoms: _703  and  _705
REMARK  275  A    between atoms: _705  and  _706
REMARK  276  A    between atoms: _705  and  _708
REMARK  277  A    between atoms: _708  and  _709
REMARK                            x       y       z     vdW  Elec       q    Type
REMARK                         _______ _______ _______ _____ _____    ______ ____
ROOT
ATOM      1  O   HOH     1       0.872  -2.336  55.563  0.00  0.00    +0.000 OA
ENDROOT
TORSDOF 0
REMARK  Name = ../refined-set-2016/4qll/4qll_pocket.pdb
REMARK  277 active torsions:
REMARK  status: ('A' for Active; 'I' for Inactive)
REMARK    1  A    between atoms: _1  and  _3
REMARK    2  A    between atoms: _3  and  _4
REMARK    3  A    between atoms: _3  and  _6
REMARK    4  A    between atoms: _9  and  _11
REMARK    5  A    between atoms: _11  and  _12
REMARK    6  A    between atoms: _11  and  _14
REMARK    7  A    between atoms: _14  and  _15
REMARK    8  A    between atoms: _18  and  _20
REMARK    9  A    between atoms: _20  and  _21
REMARK   10  A    between atoms: _20  and  _23
REMARK   11  A    between atoms: _23  and  _24
REMARK   12  A    between atoms: _26  and  _28
REMARK   13  A    between atoms: _28  and  _29
REMARK   14  A    between atoms: _28  and  _31
REMARK   15  A    between atoms: _31  and  _32
REMARK   16  A    between atoms: _32  and  _33
REMARK   17  A    between atoms: _38  and  _40
REMARK   18  A    between atoms: _40  and  _41
REMARK   19  A    between atoms: _40  and  _43
REMARK   20  A    between atoms: _43  and  _44
REMARK   21  A    between atoms: _44  and  _45
REMARK   22  A    between atoms: _45  and  _46
REMARK   23  A    between atoms: _55  and  _57
REMARK   24  A    between atoms: _57  and  _58
REMARK   25  A    between atoms: _57  and  _60
REMARK   26  A    between atoms: _60  and  _61
REMARK   27  A    between atoms: _66  and  _68
REMARK   28  A    between atoms: _68  and  _69
REMARK   29  A    between atoms: _68  and  _71
REMARK   30  A    between atoms: _71  and  _72
REMARK   31  A    between atoms: _77  and  _78
REMARK   32  A    between atoms: _80  and  _82
REMARK   33  A    between atoms: _82  and  _83
REMARK   34  A    between atoms: _82  and  _85
REMARK   35  A    between atoms: _85  and  _86
REMARK   36  A    between atoms: _91  and  _93
REMARK   37  A    between atoms: _93  and  _94
REMARK   38  A    between atoms: _93  and  _96
REMARK   39  A    between atoms: _96  and  _97
REMARK   40  A    between atoms: _97  and  _98
REMARK   41  A    between atoms: _103  and  _105
REMARK   42  A    between atoms: _105  and  _106
REMARK   43  A    between atoms: _105  and  _108
REMARK   44  A    between atoms: _108  and  _109
REMARK   45  A    between atoms: _109  and  _110
REMARK   46  A    between atoms: _110  and  _111
REMARK   47  A    between atoms: _120  and  _122
REMARK   48  A    between atoms: _122  and  _123
REMARK   49  A    between atoms: _122  and  _125
REMARK   50  A    between atoms: _125  and  _126
REMARK   51  A    between atoms: _129  and  _131
REMARK   52  A    between atoms: _131  and  _132
REMARK   53  A    between atoms: _131  and  _134
REMARK   54  A    between atoms: _134  and  _135
REMARK   55  A    between atoms: _138  and  _140
REMARK   56  A    between atoms: _140  and  _141
REMARK   57  A    between atoms: _140  and  _143
REMARK   58  A    between atoms: _143  and  _144
REMARK   59  A    between atoms: _147  and  _149
REMARK   60  A    between atoms: _149  and  _150
REMARK   61  A    between atoms: _149  and  _152
REMARK   62  A    between atoms: _152  and  _153
REMARK   63  A    between atoms: _156  and  _158
REMARK   64  A    between atoms: _158  and  _159
REMARK   65  A    between atoms: _162  and  _164
REMARK   66  A    between atoms: _164  and  _165
REMARK   67  A    between atoms: _164  and  _167
REMARK   68  A    between atoms: _167  and  _168
REMARK   69  A    between atoms: _171  and  _173
REMARK   70  A    between atoms: _173  and  _174
REMARK   71  A    between atoms: _173  and  _176
REMARK   72  A    between atoms: _176  and  _177
REMARK   73  A    between atoms: _182  and  _184
REMARK   74  A    between atoms: _184  and  _185
REMARK   75  A    between atoms: _184  and  _187
REMARK   76  A    between atoms: _190  and  _192
REMARK   77  A    between atoms: _192  and  _193
REMARK   78  A    between atoms: _192  and  _195
REMARK   79  A    between atoms: _195  and  _196
REMARK   80  A    between atoms: _199  and  _201
REMARK   81  A    between atoms: _201  and  _202
REMARK   82  A    between atoms: _201  and  _204
REMARK   83  A    between atoms: _204  and  _205
REMARK   84  A    between atoms: _208  and  _210
REMARK   85  A    between atoms: _210  and  _211
REMARK   86  A    between atoms: _210  and  _213
REMARK   87  A    between atoms: _213  and  _214
REMARK   88  A    between atoms: _220  and  _222
REMARK   89  A    between atoms: _222  and  _223
REMARK   90  A    between atoms: _222  and  _225
REMARK   91  A    between atoms: _225  and  _226
REMARK   92  A    between atoms: _231  and  _233
REMARK   93  A    between atoms: _233  and  _234
REMARK   94  A    between atoms: _233  and  _236
REMARK   95  A    between atoms: _236  and  _237
REMARK   96  A    between atoms: _247  and  _249
REMARK   97  A    between atoms: _249  and  _250
REMARK   98  A    between atoms: _249  and  _252
REMARK   99  A    between atoms: _252  and  _253
REMARK  100  A    between atoms: _258  and  _259
REMARK  101  A    between atoms: _261  and  _263
REMARK  102  A    between atoms: _263  and  _264
REMARK  103  A    between atoms: _267  and  _269
REMARK  104  A    between atoms: _269  and  _270
REMARK  105  A    between atoms: _269  and  _272
REMARK  106  A    between atoms: _272  and  _273
REMARK  107  A    between atoms: _279  and  _281
REMARK  108  A    between atoms: _281  and  _282
REMARK  109  A    between atoms: _281  and  _284
REMARK  110  A    between atoms: _284  and  _285
REMARK  111  A    between atoms: _290  and  _292
REMARK  112  A    between atoms: _292  and  _293
REMARK  113  A    between atoms: _292  and  _295
REMARK  114  A    between atoms: _295  and  _296
REMARK  115  A    between atoms: _301  and  _303
REMARK  116  A    between atoms: _303  and  _304
REMARK  117  A    between atoms: _303  and  _306
REMARK  118  A    between atoms: _306  and  _307
REMARK  119  A    between atoms: _307  and  _308
REMARK  120  A    between atoms: _313  and  _315
REMARK  121  A    between atoms: _315  and  _316
REMARK  122  A    between atoms: _315  and  _318
REMARK  123  A    between atoms: _318  and  _319
REMARK  124  A    between atoms: _324  and  _325
REMARK  125  A    between atoms: _327  and  _329
REMARK  126  A    between atoms: _329  and  _330
REMARK  127  A    between atoms: _329  and  _332
REMARK  128  A    between atoms: _332  and  _333
REMARK  129  A    between atoms: _336  and  _338
REMARK  130  A    between atoms: _338  and  _339
REMARK  131  A    between atoms: _342  and  _344
REMARK  132  A    between atoms: _344  and  _345
REMARK  133  A    between atoms: _344  and  _347
REMARK  134  A    between atoms: _347  and  _348
REMARK  135  A    between atoms: _350  and  _352
REMARK  136  A    between atoms: _352  and  _353
REMARK  137  A    between atoms: _352  and  _355
REMARK  138  A    between atoms: _355  and  _356
REMARK  139  A    between atoms: _361  and  _362
REMARK  140  A    between atoms: _364  and  _366
REMARK  141  A    between atoms: _366  and  _367
REMARK  142  A    between atoms: _366  and  _369
REMARK  143  A    between atoms: _369  and  _370
REMARK  144  A    between atoms: _370  and  _371
REMARK  145  A    between atoms: _373  and  _375
REMARK  146  A    between atoms: _375  and  _376
REMARK  147  A    between atoms: _375  and  _378
REMARK  148  A    between atoms: _378  and  _379
REMARK  149  A    between atoms: _379  and  _380
REMARK  150  A    between atoms: _380  and  _381
REMARK  151  A    between atoms: _381  and  _382
REMARK  152  A    between atoms: _386  and  _388
REMARK  153  A    between atoms: _388  and  _389
REMARK  154  A    between atoms: _388  and  _391
REMARK  155  A    between atoms: _391  and  _392
REMARK  156  A    between atoms: _397  and  _398
REMARK  157  A    between atoms: _400  and  _402
REMARK  158  A    between atoms: _402  and  _403
REMARK  159  A    between atoms: _402  and  _405
REMARK  160  A    between atoms: _405  and  _406
REMARK  161  A    between atoms: _408  and  _410
REMARK  162  A    between atoms: _410  and  _411
REMARK  163  A    between atoms: _414  and  _416
REMARK  164  A    between atoms: _416  and  _417
REMARK  165  A    between atoms: _416  and  _419
REMARK  166  A    between atoms: _419  and  _420
REMARK  167  A    between atoms: _423  and  _425
REMARK  168  A    between atoms: _425  and  _426
REMARK  169  A    between atoms: _425  and  _428
REMARK  170  A    between atoms: _428  and  _429
REMARK  171  A    between atoms: _439  and  _441
REMARK  172  A    between atoms: _441  and  _442
REMARK  173  A    between atoms: _441  and  _444
REMARK  174  A    between atoms: _444  and  _445
REMARK  175  A    between atoms: _445  and  _446
REMARK  176  A    between atoms: _451  and  _453
REMARK  177  A    between atoms: _453  and  _454
REMARK  178  A    between atoms: _453  and  _456
REMARK  179  A    between atoms: _459  and  _461
REMARK  180  A    between atoms: _461  and  _462
REMARK  181  A    between atoms: _461  and  _464
REMARK  182  A    between atoms: _464  and  _465
REMARK  183  A    between atoms: _468  and  _470
REMARK  184  A    between atoms: _470  and  _471
REMARK  185  A    between atoms: _474  and  _476
REMARK  186  A    between atoms: _476  and  _477
REMARK  187  A    between atoms: _476  and  _479
REMARK  188  A    between atoms: _482  and  _484
REMARK  189  A    between atoms: _484  and  _485
REMARK  190  A    between atoms: _484  and  _487
REMARK  191  A    between atoms: _487  and  _488
REMARK  192  A    between atoms: _494  and  _496
REMARK  193  A    between atoms: _496  and  _497
REMARK  194  A    between atoms: _496  and  _499
REMARK  195  A    between atoms: _499  and  _500
REMARK  196  A    between atoms: _502  and  _504
REMARK  197  A    between atoms: _504  and  _505
REMARK  198  A    between atoms: _504  and  _507
REMARK  199  A    between atoms: _507  and  _508
REMARK  200  A    between atoms: _513  and  _515
REMARK  201  A    between atoms: _515  and  _516
REMARK  202  A    between atoms: _515  and  _518
REMARK  203  A    between atoms: _518  and  _519
REMARK  204  A    between atoms: _529  and  _531
REMARK  205  A    between atoms: _531  and  _532
REMARK  206  A    between atoms: _531  and  _534
REMARK  207  A    between atoms: _534  and  _535
REMARK  208  A    between atoms: _538  and  _540
REMARK  209  A    between atoms: _540  and  _541
REMARK  210  A    between atoms: _540  and  _543
REMARK  211  A    between atoms: _543  and  _544
REMARK  212  A    between atoms: _549  and  _550
REMARK  213  A    between atoms: _552  and  _554
REMARK  214  A    between atoms: _554  and  _555
REMARK  215  A    between atoms: _554  and  _557
REMARK  216  A    between atoms: _557  and  _558
REMARK  217  A    between atoms: _561  and  _563
REMARK  218  A    between atoms: _563  and  _564
REMARK  219  A    between atoms: _563  and  _566
REMARK  220  A    between atoms: _566  and  _567
REMARK  221  A    between atoms: _567  and  _568
REMARK  222  A    between atoms: _571  and  _573
REMARK  223  A    between atoms: _573  and  _574
REMARK  224  A    between atoms: _573  and  _576
REMARK  225  A    between atoms: _576  and  _577
REMARK  226  A    between atoms: _582  and  _584
REMARK  227  A    between atoms: _584  and  _585
REMARK  228  A    between atoms: _587  and  _589
REMARK  229  A    between atoms: _589  and  _590
REMARK  230  A    between atoms: _589  and  _592
REMARK  231  A    between atoms: _592  and  _593
REMARK  232  A    between atoms: _593  and  _594
REMARK  233  A    between atoms: _596  and  _598
REMARK  234  A    between atoms: _598  and  _599
REMARK  235  A    between atoms: _598  and  _601
REMARK  236  A    between atoms: _601  and  _602
REMARK  237  A    between atoms: _605  and  _607
REMARK  238  A    between atoms: _607  and  _608
REMARK  239  A    between atoms: _607  and  _610
REMARK  240  A    between atoms: _610  and  _611
REMARK  241  A    between atoms: _621  and  _623
REMARK  242  A    between atoms: _623  and  _624
REMARK  243  A    between atoms: _623  and  _626
REMARK  244  A    between atoms: _626  and  _627
REMARK  245  A    between atoms: _629  and  _631
REMARK  246  A    between atoms: _631  and  _632
REMARK  247  A    between atoms: _631  and  _634
REMARK  248  A    between atoms: _634  and  _635
REMARK  249  A    between atoms: _640  and  _642
REMARK  250  A    between atoms: _642  and  _643
REMARK  251  A    between atoms: _642  and  _645
REMARK  252  A    between atoms: _645  and  _646
REMARK  253  A    between atoms: _652  and  _654
REMARK  254  A    between atoms: _654  and  _655
REMARK  255  A    between atoms: _654  and  _657
REMARK  256  A    between atoms: _657  and  _658
REMARK  257  A    between atoms: _658  and  _659
REMARK  258  A    between atoms: _662  and  _664
REMARK  259  A    between atoms: _664  and  _665
REMARK  260  A    between atoms: _664  and  _667
REMARK  261  A    between atoms: _667  and  _668
REMARK  262  A    between atoms: _678  and  _680
REMARK  263  A    between atoms: _680  and  _681
REMARK  264  A    between atoms: _680  and  _683
REMARK  265  A    between atoms: _683  and  _684
REMARK  266  A    between atoms: _687  and  _689
REMARK  267  A    between atoms: _689  and  _690
REMARK  268  A    between atoms: _689  and  _692
REMARK  269  A    between atoms: _692  and  _693
REMARK  270  A    between atoms: _695  and  _697
REMARK  271  A    between atoms: _697  and  _698
REMARK  272  A    between atoms: _697  and  _700
REMARK  273  A    between atoms: _700  and  _701
REMARK  274  A    between atoms: _703  and  _705
REMARK  275  A    between atoms: _705  and  _706
REMARK  276  A    between atoms: _705  and  _708
REMARK  277  A    between atoms: _708  and  _709
REMARK                            x       y       z     vdW  Elec       q    Type
REMARK                         _______ _______ _______ _____ _____    ______ ____
ROOT
ATOM      1  O   HOH     1      -1.126   0.608  51.535  0.00  0.00    +0.000 OA
ENDROOT
TORSDOF 0
REMARK  Name = ../refined-set-2016/4qll/4qll_pocket.pdb
REMARK  277 active torsions:
REMARK  status: ('A' for Active; 'I' for Inactive)
REMARK    1  A    between atoms: _1  and  _3
REMARK    2  A    between atoms: _3  and  _4
REMARK    3  A    between atoms: _3  and  _6
REMARK    4  A    between atoms: _9  and  _11
REMARK    5  A    between atoms: _11  and  _12
REMARK    6  A    between atoms: _11  and  _14
REMARK    7  A    between atoms: _14  and  _15
REMARK    8  A    between atoms: _18  and  _20
REMARK    9  A    between atoms: _20  and  _21
REMARK   10  A    between atoms: _20  and  _23
REMARK   11  A    between atoms: _23  and  _24
REMARK   12  A    between atoms: _26  and  _28
REMARK   13  A    between atoms: _28  and  _29
REMARK   14  A    between atoms: _28  and  _31
REMARK   15  A    between atoms: _31  and  _32
REMARK   16  A    between atoms: _32  and  _33
REMARK   17  A    between atoms: _38  and  _40
REMARK   18  A    between atoms: _40  and  _41
REMARK   19  A    between atoms: _40  and  _43
REMARK   20  A    between atoms: _43  and  _44
REMARK   21  A    between atoms: _44  and  _45
REMARK   22  A    between atoms: _45  and  _46
REMARK   23  A    between atoms: _55  and  _57
REMARK   24  A    between atoms: _57  and  _58
REMARK   25  A    between atoms: _57  and  _60
REMARK   26  A    between atoms: _60  and  _61
REMARK   27  A    between atoms: _66  and  _68
REMARK   28  A    between atoms: _68  and  _69
REMARK   29  A    between atoms: _68  and  _71
REMARK   30  A    between atoms: _71  and  _72
REMARK   31  A    between atoms: _77  and  _78
REMARK   32  A    between atoms: _80  and  _82
REMARK   33  A    between atoms: _82  and  _83
REMARK   34  A    between atoms: _82  and  _85
REMARK   35  A    between atoms: _85  and  _86
REMARK   36  A    between atoms: _91  and  _93
REMARK   37  A    between atoms: _93  and  _94
REMARK   38  A    between atoms: _93  and  _96
REMARK   39  A    between atoms: _96  and  _97
REMARK   40  A    between atoms: _97  and  _98
REMARK   41  A    between atoms: _103  and  _105
REMARK   42  A    between atoms: _105  and  _106
REMARK   43  A    between atoms: _105  and  _108
REMARK   44  A    between atoms: _108  and  _109
REMARK   45  A    between atoms: _109  and  _110
REMARK   46  A    between atoms: _110  and  _111
REMARK   47  A    between atoms: _120  and  _122
REMARK   48  A    between atoms: _122  and  _123
REMARK   49  A    between atoms: _122  and  _125
REMARK   50  A    between atoms: _125  and  _126
REMARK   51  A    between atoms: _129  and  _131
REMARK   52  A    between atoms: _131  and  _132
REMARK   53  A    between atoms: _131  and  _134
REMARK   54  A    between atoms: _134  and  _135
REMARK   55  A    between atoms: _138  and  _140
REMARK   56  A    between atoms: _140  and  _141
REMARK   57  A    between atoms: _140  and  _143
REMARK   58  A    between atoms: _143  and  _144
REMARK   59  A    between atoms: _147  and  _149
REMARK   60  A    between atoms: _149  and  _150
REMARK   61  A    between atoms: _149  and  _152
REMARK   62  A    between atoms: _152  and  _153
REMARK   63  A    between atoms: _156  and  _158
REMARK   64  A    between atoms: _158  and  _159
REMARK   65  A    between atoms: _162  and  _164
REMARK   66  A    between atoms: _164  and  _165
REMARK   67  A    between atoms: _164  and  _167
REMARK   68  A    between atoms: _167  and  _168
REMARK   69  A    between atoms: _171  and  _173
REMARK   70  A    between atoms: _173  and  _174
REMARK   71  A    between atoms: _173  and  _176
REMARK   72  A    between atoms: _176  and  _177
REMARK   73  A    between atoms: _182  and  _184
REMARK   74  A    between atoms: _184  and  _185
REMARK   75  A    between atoms: _184  and  _187
REMARK   76  A    between atoms: _190  and  _192
REMARK   77  A    between atoms: _192  and  _193
REMARK   78  A    between atoms: _192  and  _195
REMARK   79  A    between atoms: _195  and  _196
REMARK   80  A    between atoms: _199  and  _201
REMARK   81  A    between atoms: _201  and  _202
REMARK   82  A    between atoms: _201  and  _204
REMARK   83  A    between atoms: _204  and  _205
REMARK   84  A    between atoms: _208  and  _210
REMARK   85  A    between atoms: _210  and  _211
REMARK   86  A    between atoms: _210  and  _213
REMARK   87  A    between atoms: _213  and  _214
REMARK   88  A    between atoms: _220  and  _222
REMARK   89  A    between atoms: _222  and  _223
REMARK   90  A    between atoms: _222  and  _225
REMARK   91  A    between atoms: _225  and  _226
REMARK   92  A    between atoms: _231  and  _233
REMARK   93  A    between atoms: _233  and  _234
REMARK   94  A    between atoms: _233  and  _236
REMARK   95  A    between atoms: _236  and  _237
REMARK   96  A    between atoms: _247  and  _249
REMARK   97  A    between atoms: _249  and  _250
REMARK   98  A    between atoms: _249  and  _252
REMARK   99  A    between atoms: _252  and  _253
REMARK  100  A    between atoms: _258  and  _259
REMARK  101  A    between atoms: _261  and  _263
REMARK  102  A    between atoms: _263  and  _264
REMARK  103  A    between atoms: _267  and  _269
REMARK  104  A    between atoms: _269  and  _270
REMARK  105  A    between atoms: _269  and  _272
REMARK  106  A    between atoms: _272  and  _273
REMARK  107  A    between atoms: _279  and  _281
REMARK  108  A    between atoms: _281  and  _282
REMARK  109  A    between atoms: _281  and  _284
REMARK  110  A    between atoms: _284  and  _285
REMARK  111  A    between atoms: _290  and  _292
REMARK  112  A    between atoms: _292  and  _293
REMARK  113  A    between atoms: _292  and  _295
REMARK  114  A    between atoms: _295  and  _296
REMARK  115  A    between atoms: _301  and  _303
REMARK  116  A    between atoms: _303  and  _304
REMARK  117  A    between atoms: _303  and  _306
REMARK  118  A    between atoms: _306  and  _307
REMARK  119  A    between atoms: _307  and  _308
REMARK  120  A    between atoms: _313  and  _315
REMARK  121  A    between atoms: _315  and  _316
REMARK  122  A    between atoms: _315  and  _318
REMARK  123  A    between atoms: _318  and  _319
REMARK  124  A    between atoms: _324  and  _325
REMARK  125  A    between atoms: _327  and  _329
REMARK  126  A    between atoms: _329  and  _330
REMARK  127  A    between atoms: _329  and  _332
REMARK  128  A    between atoms: _332  and  _333
REMARK  129  A    between atoms: _336  and  _338
REMARK  130  A    between atoms: _338  and  _339
REMARK  131  A    between atoms: _342  and  _344
REMARK  132  A    between atoms: _344  and  _345
REMARK  133  A    between atoms: _344  and  _347
REMARK  134  A    between atoms: _347  and  _348
REMARK  135  A    between atoms: _350  and  _352
REMARK  136  A    between atoms: _352  and  _353
REMARK  137  A    between atoms: _352  and  _355
REMARK  138  A    between atoms: _355  and  _356
REMARK  139  A    between atoms: _361  and  _362
REMARK  140  A    between atoms: _364  and  _366
REMARK  141  A    between atoms: _366  and  _367
REMARK  142  A    between atoms: _366  and  _369
REMARK  143  A    between atoms: _369  and  _370
REMARK  144  A    between atoms: _370  and  _371
REMARK  145  A    between atoms: _373  and  _375
REMARK  146  A    between atoms: _375  and  _376
REMARK  147  A    between atoms: _375  and  _378
REMARK  148  A    between atoms: _378  and  _379
REMARK  149  A    between atoms: _379  and  _380
REMARK  150  A    between atoms: _380  and  _381
REMARK  151  A    between atoms: _381  and  _382
REMARK  152  A    between atoms: _386  and  _388
REMARK  153  A    between atoms: _388  and  _389
REMARK  154  A    between atoms: _388  and  _391
REMARK  155  A    between atoms: _391  and  _392
REMARK  156  A    between atoms: _397  and  _398
REMARK  157  A    between atoms: _400  and  _402
REMARK  158  A    between atoms: _402  and  _403
REMARK  159  A    between atoms: _402  and  _405
REMARK  160  A    between atoms: _405  and  _406
REMARK  161  A    between atoms: _408  and  _410
REMARK  162  A    between atoms: _410  and  _411
REMARK  163  A    between atoms: _414  and  _416
REMARK  164  A    between atoms: _416  and  _417
REMARK  165  A    between atoms: _416  and  _419
REMARK  166  A    between atoms: _419  and  _420
REMARK  167  A    between atoms: _423  and  _425
REMARK  168  A    between atoms: _425  and  _426
REMARK  169  A    between atoms: _425  and  _428
REMARK  170  A    between atoms: _428  and  _429
REMARK  171  A    between atoms: _439  and  _441
REMARK  172  A    between atoms: _441  and  _442
REMARK  173  A    between atoms: _441  and  _444
REMARK  174  A    between atoms: _444  and  _445
REMARK  175  A    between atoms: _445  and  _446
REMARK  176  A    between atoms: _451  and  _453
REMARK  177  A    between atoms: _453  and  _454
REMARK  178  A    between atoms: _453  and  _456
REMARK  179  A    between atoms: _459  and  _461
REMARK  180  A    between atoms: _461  and  _462
REMARK  181  A    between atoms: _461  and  _464
REMARK  182  A    between atoms: _464  and  _465
REMARK  183  A    between atoms: _468  and  _470
REMARK  184  A    between atoms: _470  and  _471
REMARK  185  A    between atoms: _474  and  _476
REMARK  186  A    between atoms: _476  and  _477
REMARK  187  A    between atoms: _476  and  _479
REMARK  188  A    between atoms: _482  and  _484
REMARK  189  A    between atoms: _484  and  _485
REMARK  190  A    between atoms: _484  and  _487
REMARK  191  A    between atoms: _487  and  _488
REMARK  192  A    between atoms: _494  and  _496
REMARK  193  A    between atoms: _496  and  _497
REMARK  194  A    between atoms: _496  and  _499
REMARK  195  A    between atoms: _499  and  _500
REMARK  196  A    between atoms: _502  and  _504
REMARK  197  A    between atoms: _504  and  _505
REMARK  198  A    between atoms: _504  and  _507
REMARK  199  A    between atoms: _507  and  _508
REMARK  200  A    between atoms: _513  and  _515
REMARK  201  A    between atoms: _515  and  _516
REMARK  202  A    between atoms: _515  and  _518
REMARK  203  A    between atoms: _518  and  _519
REMARK  204  A    between atoms: _529  and  _531
REMARK  205  A    between atoms: _531  and  _532
REMARK  206  A    between atoms: _531  and  _534
REMARK  207  A    between atoms: _534  and  _535
REMARK  208  A    between atoms: _538  and  _540
REMARK  209  A    between atoms: _540  and  _541
REMARK  210  A    between atoms: _540  and  _543
REMARK  211  A    between atoms: _543  and  _544
REMARK  212  A    between atoms: _549  and  _550
REMARK  213  A    between atoms: _552  and  _554
REMARK  214  A    between atoms: _554  and  _555
REMARK  215  A    between atoms: _554  and  _557
REMARK  216  A    between atoms: _557  and  _558
REMARK  217  A    between atoms: _561  and  _563
REMARK  218  A    between atoms: _563  and  _564
REMARK  219  A    between atoms: _563  and  _566
REMARK  220  A    between atoms: _566  and  _567
REMARK  221  A    between atoms: _567  and  _568
REMARK  222  A    between atoms: _571  and  _573
REMARK  223  A    between atoms: _573  and  _574
REMARK  224  A    between atoms: _573  and  _576
REMARK  225  A    between atoms: _576  and  _577
REMARK  226  A    between atoms: _582  and  _584
REMARK  227  A    between atoms: _584  and  _585
REMARK  228  A    between atoms: _587  and  _589
REMARK  229  A    between atoms: _589  and  _590
REMARK  230  A    between atoms: _589  and  _592
REMARK  231  A    between atoms: _592  and  _593
REMARK  232  A    between atoms: _593  and  _594
REMARK  233  A    between atoms: _596  and  _598
REMARK  234  A    between atoms: _598  and  _599
REMARK  235  A    between atoms: _598  and  _601
REMARK  236  A    between atoms: _601  and  _602
REMARK  237  A    between atoms: _605  and  _607
REMARK  238  A    between atoms: _607  and  _608
REMARK  239  A    between atoms: _607  and  _610
REMARK  240  A    between atoms: _610  and  _611
REMARK  241  A    between atoms: _621  and  _623
REMARK  242  A    between atoms: _623  and  _624
REMARK  243  A    between atoms: _623  and  _626
REMARK  244  A    between atoms: _626  and  _627
REMARK  245  A    between atoms: _629  and  _631
REMARK  246  A    between atoms: _631  and  _632
REMARK  247  A    between atoms: _631  and  _634
REMARK  248  A    between atoms: _634  and  _635
REMARK  249  A    between atoms: _640  and  _642
REMARK  250  A    between atoms: _642  and  _643
REMARK  251  A    between atoms: _642  and  _645
REMARK  252  A    between atoms: _645  and  _646
REMARK  253  A    between atoms: _652  and  _654
REMARK  254  A    between atoms: _654  and  _655
REMARK  255  A    between atoms: _654  and  _657
REMARK  256  A    between atoms: _657  and  _658
REMARK  257  A    between atoms: _658  and  _659
REMARK  258  A    between atoms: _662  and  _664
REMARK  259  A    between atoms: _664  and  _665
REMARK  260  A    between atoms: _664  and  _667
REMARK  261  A    between atoms: _667  and  _668
REMARK  262  A    between atoms: _678  and  _680
REMARK  263  A    between atoms: _680  and  _681
REMARK  264  A    between atoms: _680  and  _683
REMARK  265  A    between atoms: _683  and  _684
REMARK  266  A    between atoms: _687  and  _689
REMARK  267  A    between atoms: _689  and  _690
REMARK  268  A    between atoms: _689  and  _692
REMARK  269  A    between atoms: _692  and  _693
REMARK  270  A    between atoms: _695  and  _697
REMARK  271  A    between atoms: _697  and  _698
REMARK  272  A    between atoms: _697  and  _700
REMARK  273  A    between atoms: _700  and  _701
REMARK  274  A    between atoms: _703  and  _705
REMARK  275  A    between atoms: _705  and  _706
REMARK  276  A    between atoms: _705  and  _708
REMARK  277  A    between atoms: _708  and  _709
REMARK                            x       y       z     vdW  Elec       q    Type
REMARK                         _______ _______ _______ _____ _____    ______ ____
ROOT
ATOM      1  O   HOH     1      -0.833  -0.070  55.618  0.00  0.00    +0.000 OA
ENDROOT
TORSDOF 0
REMARK  Name = ../refined-set-2016/4qll/4qll_pocket.pdb
REMARK  277 active torsions:
REMARK  status: ('A' for Active; 'I' for Inactive)
REMARK    1  A    between atoms: _1  and  _3
REMARK    2  A    between atoms: _3  and  _4
REMARK    3  A    between atoms: _3  and  _6
REMARK    4  A    between atoms: _9  and  _11
REMARK    5  A    between atoms: _11  and  _12
REMARK    6  A    between atoms: _11  and  _14
REMARK    7  A    between atoms: _14  and  _15
REMARK    8  A    between atoms: _18  and  _20
REMARK    9  A    between atoms: _20  and  _21
REMARK   10  A    between atoms: _20  and  _23
REMARK   11  A    between atoms: _23  and  _24
REMARK   12  A    between atoms: _26  and  _28
REMARK   13  A    between atoms: _28  and  _29
REMARK   14  A    between atoms: _28  and  _31
REMARK   15  A    between atoms: _31  and  _32
REMARK   16  A    between atoms: _32  and  _33
REMARK   17  A    between atoms: _38  and  _40
REMARK   18  A    between atoms: _40  and  _41
REMARK   19  A    between atoms: _40  and  _43
REMARK   20  A    between atoms: _43  and  _44
REMARK   21  A    between atoms: _44  and  _45
REMARK   22  A    between atoms: _45  and  _46
REMARK   23  A    between atoms: _55  and  _57
REMARK   24  A    between atoms: _57  and  _58
REMARK   25  A    between atoms: _57  and  _60
REMARK   26  A    between atoms: _60  and  _61
REMARK   27  A    between atoms: _66  and  _68
REMARK   28  A    between atoms: _68  and  _69
REMARK   29  A    between atoms: _68  and  _71
REMARK   30  A    between atoms: _71  and  _72
REMARK   31  A    between atoms: _77  and  _78
REMARK   32  A    between atoms: _80  and  _82
REMARK   33  A    between atoms: _82  and  _83
REMARK   34  A    between atoms: _82  and  _85
REMARK   35  A    between atoms: _85  and  _86
REMARK   36  A    between atoms: _91  and  _93
REMARK   37  A    between atoms: _93  and  _94
REMARK   38  A    between atoms: _93  and  _96
REMARK   39  A    between atoms: _96  and  _97
REMARK   40  A    between atoms: _97  and  _98
REMARK   41  A    between atoms: _103  and  _105
REMARK   42  A    between atoms: _105  and  _106
REMARK   43  A    between atoms: _105  and  _108
REMARK   44  A    between atoms: _108  and  _109
REMARK   45  A    between atoms: _109  and  _110
REMARK   46  A    between atoms: _110  and  _111
REMARK   47  A    between atoms: _120  and  _122
REMARK   48  A    between atoms: _122  and  _123
REMARK   49  A    between atoms: _122  and  _125
REMARK   50  A    between atoms: _125  and  _126
REMARK   51  A    between atoms: _129  and  _131
REMARK   52  A    between atoms: _131  and  _132
REMARK   53  A    between atoms: _131  and  _134
REMARK   54  A    between atoms: _134  and  _135
REMARK   55  A    between atoms: _138  and  _140
REMARK   56  A    between atoms: _140  and  _141
REMARK   57  A    between atoms: _140  and  _143
REMARK   58  A    between atoms: _143  and  _144
REMARK   59  A    between atoms: _147  and  _149
REMARK   60  A    between atoms: _149  and  _150
REMARK   61  A    between atoms: _149  and  _152
REMARK   62  A    between atoms: _152  and  _153
REMARK   63  A    between atoms: _156  and  _158
REMARK   64  A    between atoms: _158  and  _159
REMARK   65  A    between atoms: _162  and  _164
REMARK   66  A    between atoms: _164  and  _165
REMARK   67  A    between atoms: _164  and  _167
REMARK   68  A    between atoms: _167  and  _168
REMARK   69  A    between atoms: _171  and  _173
REMARK   70  A    between atoms: _173  and  _174
REMARK   71  A    between atoms: _173  and  _176
REMARK   72  A    between atoms: _176  and  _177
REMARK   73  A    between atoms: _182  and  _184
REMARK   74  A    between atoms: _184  and  _185
REMARK   75  A    between atoms: _184  and  _187
REMARK   76  A    between atoms: _190  and  _192
REMARK   77  A    between atoms: _192  and  _193
REMARK   78  A    between atoms: _192  and  _195
REMARK   79  A    between atoms: _195  and  _196
REMARK   80  A    between atoms: _199  and  _201
REMARK   81  A    between atoms: _201  and  _202
REMARK   82  A    between atoms: _201  and  _204
REMARK   83  A    between atoms: _204  and  _205
REMARK   84  A    between atoms: _208  and  _210
REMARK   85  A    between atoms: _210  and  _211
REMARK   86  A    between atoms: _210  and  _213
REMARK   87  A    between atoms: _213  and  _214
REMARK   88  A    between atoms: _220  and  _222
REMARK   89  A    between atoms: _222  and  _223
REMARK   90  A    between atoms: _222  and  _225
REMARK   91  A    between atoms: _225  and  _226
REMARK   92  A    between atoms: _231  and  _233
REMARK   93  A    between atoms: _233  and  _234
REMARK   94  A    between atoms: _233  and  _236
REMARK   95  A    between atoms: _236  and  _237
REMARK   96  A    between atoms: _247  and  _249
REMARK   97  A    between atoms: _249  and  _250
REMARK   98  A    between atoms: _249  and  _252
REMARK   99  A    between atoms: _252  and  _253
REMARK  100  A    between atoms: _258  and  _259
REMARK  101  A    between atoms: _261  and  _263
REMARK  102  A    between atoms: _263  and  _264
REMARK  103  A    between atoms: _267  and  _269
REMARK  104  A    between atoms: _269  and  _270
REMARK  105  A    between atoms: _269  and  _272
REMARK  106  A    between atoms: _272  and  _273
REMARK  107  A    between atoms: _279  and  _281
REMARK  108  A    between atoms: _281  and  _282
REMARK  109  A    between atoms: _281  and  _284
REMARK  110  A    between atoms: _284  and  _285
REMARK  111  A    between atoms: _290  and  _292
REMARK  112  A    between atoms: _292  and  _293
REMARK  113  A    between atoms: _292  and  _295
REMARK  114  A    between atoms: _295  and  _296
REMARK  115  A    between atoms: _301  and  _303
REMARK  116  A    between atoms: _303  and  _304
REMARK  117  A    between atoms: _303  and  _306
REMARK  118  A    between atoms: _306  and  _307
REMARK  119  A    between atoms: _307  and  _308
REMARK  120  A    between atoms: _313  and  _315
REMARK  121  A    between atoms: _315  and  _316
REMARK  122  A    between atoms: _315  and  _318
REMARK  123  A    between atoms: _318  and  _319
REMARK  124  A    between atoms: _324  and  _325
REMARK  125  A    between atoms: _327  and  _329
REMARK  126  A    between atoms: _329  and  _330
REMARK  127  A    between atoms: _329  and  _332
REMARK  128  A    between atoms: _332  and  _333
REMARK  129  A    between atoms: _336  and  _338
REMARK  130  A    between atoms: _338  and  _339
REMARK  131  A    between atoms: _342  and  _344
REMARK  132  A    between atoms: _344  and  _345
REMARK  133  A    between atoms: _344  and  _347
REMARK  134  A    between atoms: _347  and  _348
REMARK  135  A    between atoms: _350  and  _352
REMARK  136  A    between atoms: _352  and  _353
REMARK  137  A    between atoms: _352  and  _355
REMARK  138  A    between atoms: _355  and  _356
REMARK  139  A    between atoms: _361  and  _362
REMARK  140  A    between atoms: _364  and  _366
REMARK  141  A    between atoms: _366  and  _367
REMARK  142  A    between atoms: _366  and  _369
REMARK  143  A    between atoms: _369  and  _370
REMARK  144  A    between atoms: _370  and  _371
REMARK  145  A    between atoms: _373  and  _375
REMARK  146  A    between atoms: _375  and  _376
REMARK  147  A    between atoms: _375  and  _378
REMARK  148  A    between atoms: _378  and  _379
REMARK  149  A    between atoms: _379  and  _380
REMARK  150  A    between atoms: _380  and  _381
REMARK  151  A    between atoms: _381  and  _382
REMARK  152  A    between atoms: _386  and  _388
REMARK  153  A    between atoms: _388  and  _389
REMARK  154  A    between atoms: _388  and  _391
REMARK  155  A    between atoms: _391  and  _392
REMARK  156  A    between atoms: _397  and  _398
REMARK  157  A    between atoms: _400  and  _402
REMARK  158  A    between atoms: _402  and  _403
REMARK  159  A    between atoms: _402  and  _405
REMARK  160  A    between atoms: _405  and  _406
REMARK  161  A    between atoms: _408  and  _410
REMARK  162  A    between atoms: _410  and  _411
REMARK  163  A    between atoms: _414  and  _416
REMARK  164  A    between atoms: _416  and  _417
REMARK  165  A    between atoms: _416  and  _419
REMARK  166  A    between atoms: _419  and  _420
REMARK  167  A    between atoms: _423  and  _425
REMARK  168  A    between atoms: _425  and  _426
REMARK  169  A    between atoms: _425  and  _428
REMARK  170  A    between atoms: _428  and  _429
REMARK  171  A    between atoms: _439  and  _441
REMARK  172  A    between atoms: _441  and  _442
REMARK  173  A    between atoms: _441  and  _444
REMARK  174  A    between atoms: _444  and  _445
REMARK  175  A    between atoms: _445  and  _446
REMARK  176  A    between atoms: _451  and  _453
REMARK  177  A    between atoms: _453  and  _454
REMARK  178  A    between atoms: _453  and  _456
REMARK  179  A    between atoms: _459  and  _461
REMARK  180  A    between atoms: _461  and  _462
REMARK  181  A    between atoms: _461  and  _464
REMARK  182  A    between atoms: _464  and  _465
REMARK  183  A    between atoms: _468  and  _470
REMARK  184  A    between atoms: _470  and  _471
REMARK  185  A    between atoms: _474  and  _476
REMARK  186  A    between atoms: _476  and  _477
REMARK  187  A    between atoms: _476  and  _479
REMARK  188  A    between atoms: _482  and  _484
REMARK  189  A    between atoms: _484  and  _485
REMARK  190  A    between atoms: _484  and  _487
REMARK  191  A    between atoms: _487  and  _488
REMARK  192  A    between atoms: _494  and  _496
REMARK  193  A    between atoms: _496  and  _497
REMARK  194  A    between atoms: _496  and  _499
REMARK  195  A    between atoms: _499  and  _500
REMARK  196  A    between atoms: _502  and  _504
REMARK  197  A    between atoms: _504  and  _505
REMARK  198  A    between atoms: _504  and  _507
REMARK  199  A    between atoms: _507  and  _508
REMARK  200  A    between atoms: _513  and  _515
REMARK  201  A    between atoms: _515  and  _516
REMARK  202  A    between atoms: _515  and  _518
REMARK  203  A    between atoms: _518  and  _519
REMARK  204  A    between atoms: _529  and  _531
REMARK  205  A    between atoms: _531  and  _532
REMARK  206  A    between atoms: _531  and  _534
REMARK  207  A    between atoms: _534  and  _535
REMARK  208  A    between atoms: _538  and  _540
REMARK  209  A    between atoms: _540  and  _541
REMARK  210  A    between atoms: _540  and  _543
REMARK  211  A    between atoms: _543  and  _544
REMARK  212  A    between atoms: _549  and  _550
REMARK  213  A    between atoms: _552  and  _554
REMARK  214  A    between atoms: _554  and  _555
REMARK  215  A    between atoms: _554  and  _557
REMARK  216  A    between atoms: _557  and  _558
REMARK  217  A    between atoms: _561  and  _563
REMARK  218  A    between atoms: _563  and  _564
REMARK  219  A    between atoms: _563  and  _566
REMARK  220  A    between atoms: _566  and  _567
REMARK  221  A    between atoms: _567  and  _568
REMARK  222  A    between atoms: _571  and  _573
REMARK  223  A    between atoms: _573  and  _574
REMARK  224  A    between atoms: _573  and  _576
REMARK  225  A    between atoms: _576  and  _577
REMARK  226  A    between atoms: _582  and  _584
REMARK  227  A    between atoms: _584  and  _585
REMARK  228  A    between atoms: _587  and  _589
REMARK  229  A    between atoms: _589  and  _590
REMARK  230  A    between atoms: _589  and  _592
REMARK  231  A    between atoms: _592  and  _593
REMARK  232  A    between atoms: _593  and  _594
REMARK  233  A    between atoms: _596  and  _598
REMARK  234  A    between atoms: _598  and  _599
REMARK  235  A    between atoms: _598  and  _601
REMARK  236  A    between atoms: _601  and  _602
REMARK  237  A    between atoms: _605  and  _607
REMARK  238  A    between atoms: _607  and  _608
REMARK  239  A    between atoms: _607  and  _610
REMARK  240  A    between atoms: _610  and  _611
REMARK  241  A    between atoms: _621  and  _623
REMARK  242  A    between atoms: _623  and  _624
REMARK  243  A    between atoms: _623  and  _626
REMARK  244  A    between atoms: _626  and  _627
REMARK  245  A    between atoms: _629  and  _631
REMARK  246  A    between atoms: _631  and  _632
REMARK  247  A    between atoms: _631  and  _634
REMARK  248  A    between atoms: _634  and  _635
REMARK  249  A    between atoms: _640  and  _642
REMARK  250  A    between atoms: _642  and  _643
REMARK  251  A    between atoms: _642  and  _645
REMARK  252  A    between atoms: _645  and  _646
REMARK  253  A    between atoms: _652  and  _654
REMARK  254  A    between atoms: _654  and  _655
REMARK  255  A    between atoms: _654  and  _657
REMARK  256  A    between atoms: _657  and  _658
REMARK  257  A    between atoms: _658  and  _659
REMARK  258  A    between atoms: _662  and  _664
REMARK  259  A    between atoms: _664  and  _665
REMARK  260  A    between atoms: _664  and  _667
REMARK  261  A    between atoms: _667  and  _668
REMARK  262  A    between atoms: _678  and  _680
REMARK  263  A    between atoms: _680  and  _681
REMARK  264  A    between atoms: _680  and  _683
REMARK  265  A    between atoms: _683  and  _684
REMARK  266  A    between atoms: _687  and  _689
REMARK  267  A    between atoms: _689  and  _690
REMARK  268  A    between atoms: _689  and  _692
REMARK  269  A    between atoms: _692  and  _693
REMARK  270  A    between atoms: _695  and  _697
REMARK  271  A    between atoms: _697  and  _698
REMARK  272  A    between atoms: _697  and  _700
REMARK  273  A    between atoms: _700  and  _701
REMARK  274  A    between atoms: _703  and  _705
REMARK  275  A    between atoms: _705  and  _706
REMARK  276  A    between atoms: _705  and  _708
REMARK  277  A    between atoms: _708  and  _709
REMARK                            x       y       z     vdW  Elec       q    Type
REMARK                         _______ _______ _______ _____ _____    ______ ____
ROOT
ATOM      1  O   HOH     1      -2.237  -3.909  46.507  0.00  0.00    +0.000 OA
ENDROOT
TORSDOF 0
REMARK  Name = ../refined-set-2016/4qll/4qll_pocket.pdb
REMARK  277 active torsions:
REMARK  status: ('A' for Active; 'I' for Inactive)
REMARK    1  A    between atoms: _1  and  _3
REMARK    2  A    between atoms: _3  and  _4
REMARK    3  A    between atoms: _3  and  _6
REMARK    4  A    between atoms: _9  and  _11
REMARK    5  A    between atoms: _11  and  _12
REMARK    6  A    between atoms: _11  and  _14
REMARK    7  A    between atoms: _14  and  _15
REMARK    8  A    between atoms: _18  and  _20
REMARK    9  A    between atoms: _20  and  _21
REMARK   10  A    between atoms: _20  and  _23
REMARK   11  A    between atoms: _23  and  _24
REMARK   12  A    between atoms: _26  and  _28
REMARK   13  A    between atoms: _28  and  _29
REMARK   14  A    between atoms: _28  and  _31
REMARK   15  A    between atoms: _31  and  _32
REMARK   16  A    between atoms: _32  and  _33
REMARK   17  A    between atoms: _38  and  _40
REMARK   18  A    between atoms: _40  and  _41
REMARK   19  A    between atoms: _40  and  _43
REMARK   20  A    between atoms: _43  and  _44
REMARK   21  A    between atoms: _44  and  _45
REMARK   22  A    between atoms: _45  and  _46
REMARK   23  A    between atoms: _55  and  _57
REMARK   24  A    between atoms: _57  and  _58
REMARK   25  A    between atoms: _57  and  _60
REMARK   26  A    between atoms: _60  and  _61
REMARK   27  A    between atoms: _66  and  _68
REMARK   28  A    between atoms: _68  and  _69
REMARK   29  A    between atoms: _68  and  _71
REMARK   30  A    between atoms: _71  and  _72
REMARK   31  A    between atoms: _77  and  _78
REMARK   32  A    between atoms: _80  and  _82
REMARK   33  A    between atoms: _82  and  _83
REMARK   34  A    between atoms: _82  and  _85
REMARK   35  A    between atoms: _85  and  _86
REMARK   36  A    between atoms: _91  and  _93
REMARK   37  A    between atoms: _93  and  _94
REMARK   38  A    between atoms: _93  and  _96
REMARK   39  A    between atoms: _96  and  _97
REMARK   40  A    between atoms: _97  and  _98
REMARK   41  A    between atoms: _103  and  _105
REMARK   42  A    between atoms: _105  and  _106
REMARK   43  A    between atoms: _105  and  _108
REMARK   44  A    between atoms: _108  and  _109
REMARK   45  A    between atoms: _109  and  _110
REMARK   46  A    between atoms: _110  and  _111
REMARK   47  A    between atoms: _120  and  _122
REMARK   48  A    between atoms: _122  and  _123
REMARK   49  A    between atoms: _122  and  _125
REMARK   50  A    between atoms: _125  and  _126
REMARK   51  A    between atoms: _129  and  _131
REMARK   52  A    between atoms: _131  and  _132
REMARK   53  A    between atoms: _131  and  _134
REMARK   54  A    between atoms: _134  and  _135
REMARK   55  A    between atoms: _138  and  _140
REMARK   56  A    between atoms: _140  and  _141
REMARK   57  A    between atoms: _140  and  _143
REMARK   58  A    between atoms: _143  and  _144
REMARK   59  A    between atoms: _147  and  _149
REMARK   60  A    between atoms: _149  and  _150
REMARK   61  A    between atoms: _149  and  _152
REMARK   62  A    between atoms: _152  and  _153
REMARK   63  A    between atoms: _156  and  _158
REMARK   64  A    between atoms: _158  and  _159
REMARK   65  A    between atoms: _162  and  _164
REMARK   66  A    between atoms: _164  and  _165
REMARK   67  A    between atoms: _164  and  _167
REMARK   68  A    between atoms: _167  and  _168
REMARK   69  A    between atoms: _171  and  _173
REMARK   70  A    between atoms: _173  and  _174
REMARK   71  A    between atoms: _173  and  _176
REMARK   72  A    between atoms: _176  and  _177
REMARK   73  A    between atoms: _182  and  _184
REMARK   74  A    between atoms: _184  and  _185
REMARK   75  A    between atoms: _184  and  _187
REMARK   76  A    between atoms: _190  and  _192
REMARK   77  A    between atoms: _192  and  _193
REMARK   78  A    between atoms: _192  and  _195
REMARK   79  A    between atoms: _195  and  _196
REMARK   80  A    between atoms: _199  and  _201
REMARK   81  A    between atoms: _201  and  _202
REMARK   82  A    between atoms: _201  and  _204
REMARK   83  A    between atoms: _204  and  _205
REMARK   84  A    between atoms: _208  and  _210
REMARK   85  A    between atoms: _210  and  _211
REMARK   86  A    between atoms: _210  and  _213
REMARK   87  A    between atoms: _213  and  _214
REMARK   88  A    between atoms: _220  and  _222
REMARK   89  A    between atoms: _222  and  _223
REMARK   90  A    between atoms: _222  and  _225
REMARK   91  A    between atoms: _225  and  _226
REMARK   92  A    between atoms: _231  and  _233
REMARK   93  A    between atoms: _233  and  _234
REMARK   94  A    between atoms: _233  and  _236
REMARK   95  A    between atoms: _236  and  _237
REMARK   96  A    between atoms: _247  and  _249
REMARK   97  A    between atoms: _249  and  _250
REMARK   98  A    between atoms: _249  and  _252
REMARK   99  A    between atoms: _252  and  _253
REMARK  100  A    between atoms: _258  and  _259
REMARK  101  A    between atoms: _261  and  _263
REMARK  102  A    between atoms: _263  and  _264
REMARK  103  A    between atoms: _267  and  _269
REMARK  104  A    between atoms: _269  and  _270
REMARK  105  A    between atoms: _269  and  _272
REMARK  106  A    between atoms: _272  and  _273
REMARK  107  A    between atoms: _279  and  _281
REMARK  108  A    between atoms: _281  and  _282
REMARK  109  A    between atoms: _281  and  _284
REMARK  110  A    between atoms: _284  and  _285
REMARK  111  A    between atoms: _290  and  _292
REMARK  112  A    between atoms: _292  and  _293
REMARK  113  A    between atoms: _292  and  _295
REMARK  114  A    between atoms: _295  and  _296
REMARK  115  A    between atoms: _301  and  _303
REMARK  116  A    between atoms: _303  and  _304
REMARK  117  A    between atoms: _303  and  _306
REMARK  118  A    between atoms: _306  and  _307
REMARK  119  A    between atoms: _307  and  _308
REMARK  120  A    between atoms: _313  and  _315
REMARK  121  A    between atoms: _315  and  _316
REMARK  122  A    between atoms: _315  and  _318
REMARK  123  A    between atoms: _318  and  _319
REMARK  124  A    between atoms: _324  and  _325
REMARK  125  A    between atoms: _327  and  _329
REMARK  126  A    between atoms: _329  and  _330
REMARK  127  A    between atoms: _329  and  _332
REMARK  128  A    between atoms: _332  and  _333
REMARK  129  A    between atoms: _336  and  _338
REMARK  130  A    between atoms: _338  and  _339
REMARK  131  A    between atoms: _342  and  _344
REMARK  132  A    between atoms: _344  and  _345
REMARK  133  A    between atoms: _344  and  _347
REMARK  134  A    between atoms: _347  and  _348
REMARK  135  A    between atoms: _350  and  _352
REMARK  136  A    between atoms: _352  and  _353
REMARK  137  A    between atoms: _352  and  _355
REMARK  138  A    between atoms: _355  and  _356
REMARK  139  A    between atoms: _361  and  _362
REMARK  140  A    between atoms: _364  and  _366
REMARK  141  A    between atoms: _366  and  _367
REMARK  142  A    between atoms: _366  and  _369
REMARK  143  A    between atoms: _369  and  _370
REMARK  144  A    between atoms: _370  and  _371
REMARK  145  A    between atoms: _373  and  _375
REMARK  146  A    between atoms: _375  and  _376
REMARK  147  A    between atoms: _375  and  _378
REMARK  148  A    between atoms: _378  and  _379
REMARK  149  A    between atoms: _379  and  _380
REMARK  150  A    between atoms: _380  and  _381
REMARK  151  A    between atoms: _381  and  _382
REMARK  152  A    between atoms: _386  and  _388
REMARK  153  A    between atoms: _388  and  _389
REMARK  154  A    between atoms: _388  and  _391
REMARK  155  A    between atoms: _391  and  _392
REMARK  156  A    between atoms: _397  and  _398
REMARK  157  A    between atoms: _400  and  _402
REMARK  158  A    between atoms: _402  and  _403
REMARK  159  A    between atoms: _402  and  _405
REMARK  160  A    between atoms: _405  and  _406
REMARK  161  A    between atoms: _408  and  _410
REMARK  162  A    between atoms: _410  and  _411
REMARK  163  A    between atoms: _414  and  _416
REMARK  164  A    between atoms: _416  and  _417
REMARK  165  A    between atoms: _416  and  _419
REMARK  166  A    between atoms: _419  and  _420
REMARK  167  A    between atoms: _423  and  _425
REMARK  168  A    between atoms: _425  and  _426
REMARK  169  A    between atoms: _425  and  _428
REMARK  170  A    between atoms: _428  and  _429
REMARK  171  A    between atoms: _439  and  _441
REMARK  172  A    between atoms: _441  and  _442
REMARK  173  A    between atoms: _441  and  _444
REMARK  174  A    between atoms: _444  and  _445
REMARK  175  A    between atoms: _445  and  _446
REMARK  176  A    between atoms: _451  and  _453
REMARK  177  A    between atoms: _453  and  _454
REMARK  178  A    between atoms: _453  and  _456
REMARK  179  A    between atoms: _459  and  _461
REMARK  180  A    between atoms: _461  and  _462
REMARK  181  A    between atoms: _461  and  _464
REMARK  182  A    between atoms: _464  and  _465
REMARK  183  A    between atoms: _468  and  _470
REMARK  184  A    between atoms: _470  and  _471
REMARK  185  A    between atoms: _474  and  _476
REMARK  186  A    between atoms: _476  and  _477
REMARK  187  A    between atoms: _476  and  _479
REMARK  188  A    between atoms: _482  and  _484
REMARK  189  A    between atoms: _484  and  _485
REMARK  190  A    between atoms: _484  and  _487
REMARK  191  A    between atoms: _487  and  _488
REMARK  192  A    between atoms: _494  and  _496
REMARK  193  A    between atoms: _496  and  _497
REMARK  194  A    between atoms: _496  and  _499
REMARK  195  A    between atoms: _499  and  _500
REMARK  196  A    between atoms: _502  and  _504
REMARK  197  A    between atoms: _504  and  _505
REMARK  198  A    between atoms: _504  and  _507
REMARK  199  A    between atoms: _507  and  _508
REMARK  200  A    between atoms: _513  and  _515
REMARK  201  A    between atoms: _515  and  _516
REMARK  202  A    between atoms: _515  and  _518
REMARK  203  A    between atoms: _518  and  _519
REMARK  204  A    between atoms: _529  and  _531
REMARK  205  A    between atoms: _531  and  _532
REMARK  206  A    between atoms: _531  and  _534
REMARK  207  A    between atoms: _534  and  _535
REMARK  208  A    between atoms: _538  and  _540
REMARK  209  A    between atoms: _540  and  _541
REMARK  210  A    between atoms: _540  and  _543
REMARK  211  A    between atoms: _543  and  _544
REMARK  212  A    between atoms: _549  and  _550
REMARK  213  A    between atoms: _552  and  _554
REMARK  214  A    between atoms: _554  and  _555
REMARK  215  A    between atoms: _554  and  _557
REMARK  216  A    between atoms: _557  and  _558
REMARK  217  A    between atoms: _561  and  _563
REMARK  218  A    between atoms: _563  and  _564
REMARK  219  A    between atoms: _563  and  _566
REMARK  220  A    between atoms: _566  and  _567
REMARK  221  A    between atoms: _567  and  _568
REMARK  222  A    between atoms: _571  and  _573
REMARK  223  A    between atoms: _573  and  _574
REMARK  224  A    between atoms: _573  and  _576
REMARK  225  A    between atoms: _576  and  _577
REMARK  226  A    between atoms: _582  and  _584
REMARK  227  A    between atoms: _584  and  _585
REMARK  228  A    between atoms: _587  and  _589
REMARK  229  A    between atoms: _589  and  _590
REMARK  230  A    between atoms: _589  and  _592
REMARK  231  A    between atoms: _592  and  _593
REMARK  232  A    between atoms: _593  and  _594
REMARK  233  A    between atoms: _596  and  _598
REMARK  234  A    between atoms: _598  and  _599
REMARK  235  A    between atoms: _598  and  _601
REMARK  236  A    between atoms: _601  and  _602
REMARK  237  A    between atoms: _605  and  _607
REMARK  238  A    between atoms: _607  and  _608
REMARK  239  A    between atoms: _607  and  _610
REMARK  240  A    between atoms: _610  and  _611
REMARK  241  A    between atoms: _621  and  _623
REMARK  242  A    between atoms: _623  and  _624
REMARK  243  A    between atoms: _623  and  _626
REMARK  244  A    between atoms: _626  and  _627
REMARK  245  A    between atoms: _629  and  _631
REMARK  246  A    between atoms: _631  and  _632
REMARK  247  A    between atoms: _631  and  _634
REMARK  248  A    between atoms: _634  and  _635
REMARK  249  A    between atoms: _640  and  _642
REMARK  250  A    between atoms: _642  and  _643
REMARK  251  A    between atoms: _642  and  _645
REMARK  252  A    between atoms: _645  and  _646
REMARK  253  A    between atoms: _652  and  _654
REMARK  254  A    between atoms: _654  and  _655
REMARK  255  A    between atoms: _654  and  _657
REMARK  256  A    between atoms: _657  and  _658
REMARK  257  A    between atoms: _658  and  _659
REMARK  258  A    between atoms: _662  and  _664
REMARK  259  A    between atoms: _664  and  _665
REMARK  260  A    between atoms: _664  and  _667
REMARK  261  A    between atoms: _667  and  _668
REMARK  262  A    between atoms: _678  and  _680
REMARK  263  A    between atoms: _680  and  _681
REMARK  264  A    between atoms: _680  and  _683
REMARK  265  A    between atoms: _683  and  _684
REMARK  266  A    between atoms: _687  and  _689
REMARK  267  A    between atoms: _689  and  _690
REMARK  268  A    between atoms: _689  and  _692
REMARK  269  A    between atoms: _692  and  _693
REMARK  270  A    between atoms: _695  and  _697
REMARK  271  A    between atoms: _697  and  _698
REMARK  272  A    between atoms: _697  and  _700
REMARK  273  A    between atoms: _700  and  _701
REMARK  274  A    between atoms: _703  and  _705
REMARK  275  A    between atoms: _705  and  _706
REMARK  276  A    between atoms: _705  and  _708
REMARK  277  A    between atoms: _708  and  _709
REMARK                            x       y       z     vdW  Elec       q    Type
REMARK                         _______ _______ _______ _____ _____    ______ ____
ROOT
ATOM      1  O   HOH     1      -0.395  -1.397  53.173  0.00  0.00    +0.000 OA
ENDROOT
TORSDOF 0
REMARK  Name = ../refined-set-2016/4qll/4qll_pocket.pdb
REMARK  277 active torsions:
REMARK  status: ('A' for Active; 'I' for Inactive)
REMARK    1  A    between atoms: _1  and  _3
REMARK    2  A    between atoms: _3  and  _4
REMARK    3  A    between atoms: _3  and  _6
REMARK    4  A    between atoms: _9  and  _11
REMARK    5  A    between atoms: _11  and  _12
REMARK    6  A    between atoms: _11  and  _14
REMARK    7  A    between atoms: _14  and  _15
REMARK    8  A    between atoms: _18  and  _20
REMARK    9  A    between atoms: _20  and  _21
REMARK   10  A    between atoms: _20  and  _23
REMARK   11  A    between atoms: _23  and  _24
REMARK   12  A    between atoms: _26  and  _28
REMARK   13  A    between atoms: _28  and  _29
REMARK   14  A    between atoms: _28  and  _31
REMARK   15  A    between atoms: _31  and  _32
REMARK   16  A    between atoms: _32  and  _33
REMARK   17  A    between atoms: _38  and  _40
REMARK   18  A    between atoms: _40  and  _41
REMARK   19  A    between atoms: _40  and  _43
REMARK   20  A    between atoms: _43  and  _44
REMARK   21  A    between atoms: _44  and  _45
REMARK   22  A    between atoms: _45  and  _46
REMARK   23  A    between atoms: _55  and  _57
REMARK   24  A    between atoms: _57  and  _58
REMARK   25  A    between atoms: _57  and  _60
REMARK   26  A    between atoms: _60  and  _61
REMARK   27  A    between atoms: _66  and  _68
REMARK   28  A    between atoms: _68  and  _69
REMARK   29  A    between atoms: _68  and  _71
REMARK   30  A    between atoms: _71  and  _72
REMARK   31  A    between atoms: _77  and  _78
REMARK   32  A    between atoms: _80  and  _82
REMARK   33  A    between atoms: _82  and  _83
REMARK   34  A    between atoms: _82  and  _85
REMARK   35  A    between atoms: _85  and  _86
REMARK   36  A    between atoms: _91  and  _93
REMARK   37  A    between atoms: _93  and  _94
REMARK   38  A    between atoms: _93  and  _96
REMARK   39  A    between atoms: _96  and  _97
REMARK   40  A    between atoms: _97  and  _98
REMARK   41  A    between atoms: _103  and  _105
REMARK   42  A    between atoms: _105  and  _106
REMARK   43  A    between atoms: _105  and  _108
REMARK   44  A    between atoms: _108  and  _109
REMARK   45  A    between atoms: _109  and  _110
REMARK   46  A    between atoms: _110  and  _111
REMARK   47  A    between atoms: _120  and  _122
REMARK   48  A    between atoms: _122  and  _123
REMARK   49  A    between atoms: _122  and  _125
REMARK   50  A    between atoms: _125  and  _126
REMARK   51  A    between atoms: _129  and  _131
REMARK   52  A    between atoms: _131  and  _132
REMARK   53  A    between atoms: _131  and  _134
REMARK   54  A    between atoms: _134  and  _135
REMARK   55  A    between atoms: _138  and  _140
REMARK   56  A    between atoms: _140  and  _141
REMARK   57  A    between atoms: _140  and  _143
REMARK   58  A    between atoms: _143  and  _144
REMARK   59  A    between atoms: _147  and  _149
REMARK   60  A    between atoms: _149  and  _150
REMARK   61  A    between atoms: _149  and  _152
REMARK   62  A    between atoms: _152  and  _153
REMARK   63  A    between atoms: _156  and  _158
REMARK   64  A    between atoms: _158  and  _159
REMARK   65  A    between atoms: _162  and  _164
REMARK   66  A    between atoms: _164  and  _165
REMARK   67  A    between atoms: _164  and  _167
REMARK   68  A    between atoms: _167  and  _168
REMARK   69  A    between atoms: _171  and  _173
REMARK   70  A    between atoms: _173  and  _174
REMARK   71  A    between atoms: _173  and  _176
REMARK   72  A    between atoms: _176  and  _177
REMARK   73  A    between atoms: _182  and  _184
REMARK   74  A    between atoms: _184  and  _185
REMARK   75  A    between atoms: _184  and  _187
REMARK   76  A    between atoms: _190  and  _192
REMARK   77  A    between atoms: _192  and  _193
REMARK   78  A    between atoms: _192  and  _195
REMARK   79  A    between atoms: _195  and  _196
REMARK   80  A    between atoms: _199  and  _201
REMARK   81  A    between atoms: _201  and  _202
REMARK   82  A    between atoms: _201  and  _204
REMARK   83  A    between atoms: _204  and  _205
REMARK   84  A    between atoms: _208  and  _210
REMARK   85  A    between atoms: _210  and  _211
REMARK   86  A    between atoms: _210  and  _213
REMARK   87  A    between atoms: _213  and  _214
REMARK   88  A    between atoms: _220  and  _222
REMARK   89  A    between atoms: _222  and  _223
REMARK   90  A    between atoms: _222  and  _225
REMARK   91  A    between atoms: _225  and  _226
REMARK   92  A    between atoms: _231  and  _233
REMARK   93  A    between atoms: _233  and  _234
REMARK   94  A    between atoms: _233  and  _236
REMARK   95  A    between atoms: _236  and  _237
REMARK   96  A    between atoms: _247  and  _249
REMARK   97  A    between atoms: _249  and  _250
REMARK   98  A    between atoms: _249  and  _252
REMARK   99  A    between atoms: _252  and  _253
REMARK  100  A    between atoms: _258  and  _259
REMARK  101  A    between atoms: _261  and  _263
REMARK  102  A    between atoms: _263  and  _264
REMARK  103  A    between atoms: _267  and  _269
REMARK  104  A    between atoms: _269  and  _270
REMARK  105  A    between atoms: _269  and  _272
REMARK  106  A    between atoms: _272  and  _273
REMARK  107  A    between atoms: _279  and  _281
REMARK  108  A    between atoms: _281  and  _282
REMARK  109  A    between atoms: _281  and  _284
REMARK  110  A    between atoms: _284  and  _285
REMARK  111  A    between atoms: _290  and  _292
REMARK  112  A    between atoms: _292  and  _293
REMARK  113  A    between atoms: _292  and  _295
REMARK  114  A    between atoms: _295  and  _296
REMARK  115  A    between atoms: _301  and  _303
REMARK  116  A    between atoms: _303  and  _304
REMARK  117  A    between atoms: _303  and  _306
REMARK  118  A    between atoms: _306  and  _307
REMARK  119  A    between atoms: _307  and  _308
REMARK  120  A    between atoms: _313  and  _315
REMARK  121  A    between atoms: _315  and  _316
REMARK  122  A    between atoms: _315  and  _318
REMARK  123  A    between atoms: _318  and  _319
REMARK  124  A    between atoms: _324  and  _325
REMARK  125  A    between atoms: _327  and  _329
REMARK  126  A    between atoms: _329  and  _330
REMARK  127  A    between atoms: _329  and  _332
REMARK  128  A    between atoms: _332  and  _333
REMARK  129  A    between atoms: _336  and  _338
REMARK  130  A    between atoms: _338  and  _339
REMARK  131  A    between atoms: _342  and  _344
REMARK  132  A    between atoms: _344  and  _345
REMARK  133  A    between atoms: _344  and  _347
REMARK  134  A    between atoms: _347  and  _348
REMARK  135  A    between atoms: _350  and  _352
REMARK  136  A    between atoms: _352  and  _353
REMARK  137  A    between atoms: _352  and  _355
REMARK  138  A    between atoms: _355  and  _356
REMARK  139  A    between atoms: _361  and  _362
REMARK  140  A    between atoms: _364  and  _366
REMARK  141  A    between atoms: _366  and  _367
REMARK  142  A    between atoms: _366  and  _369
REMARK  143  A    between atoms: _369  and  _370
REMARK  144  A    between atoms: _370  and  _371
REMARK  145  A    between atoms: _373  and  _375
REMARK  146  A    between atoms: _375  and  _376
REMARK  147  A    between atoms: _375  and  _378
REMARK  148  A    between atoms: _378  and  _379
REMARK  149  A    between atoms: _379  and  _380
REMARK  150  A    between atoms: _380  and  _381
REMARK  151  A    between atoms: _381  and  _382
REMARK  152  A    between atoms: _386  and  _388
REMARK  153  A    between atoms: _388  and  _389
REMARK  154  A    between atoms: _388  and  _391
REMARK  155  A    between atoms: _391  and  _392
REMARK  156  A    between atoms: _397  and  _398
REMARK  157  A    between atoms: _400  and  _402
REMARK  158  A    between atoms: _402  and  _403
REMARK  159  A    between atoms: _402  and  _405
REMARK  160  A    between atoms: _405  and  _406
REMARK  161  A    between atoms: _408  and  _410
REMARK  162  A    between atoms: _410  and  _411
REMARK  163  A    between atoms: _414  and  _416
REMARK  164  A    between atoms: _416  and  _417
REMARK  165  A    between atoms: _416  and  _419
REMARK  166  A    between atoms: _419  and  _420
REMARK  167  A    between atoms: _423  and  _425
REMARK  168  A    between atoms: _425  and  _426
REMARK  169  A    between atoms: _425  and  _428
REMARK  170  A    between atoms: _428  and  _429
REMARK  171  A    between atoms: _439  and  _441
REMARK  172  A    between atoms: _441  and  _442
REMARK  173  A    between atoms: _441  and  _444
REMARK  174  A    between atoms: _444  and  _445
REMARK  175  A    between atoms: _445  and  _446
REMARK  176  A    between atoms: _451  and  _453
REMARK  177  A    between atoms: _453  and  _454
REMARK  178  A    between atoms: _453  and  _456
REMARK  179  A    between atoms: _459  and  _461
REMARK  180  A    between atoms: _461  and  _462
REMARK  181  A    between atoms: _461  and  _464
REMARK  182  A    between atoms: _464  and  _465
REMARK  183  A    between atoms: _468  and  _470
REMARK  184  A    between atoms: _470  and  _471
REMARK  185  A    between atoms: _474  and  _476
REMARK  186  A    between atoms: _476  and  _477
REMARK  187  A    between atoms: _476  and  _479
REMARK  188  A    between atoms: _482  and  _484
REMARK  189  A    between atoms: _484  and  _485
REMARK  190  A    between atoms: _484  and  _487
REMARK  191  A    between atoms: _487  and  _488
REMARK  192  A    between atoms: _494  and  _496
REMARK  193  A    between atoms: _496  and  _497
REMARK  194  A    between atoms: _496  and  _499
REMARK  195  A    between atoms: _499  and  _500
REMARK  196  A    between atoms: _502  and  _504
REMARK  197  A    between atoms: _504  and  _505
REMARK  198  A    between atoms: _504  and  _507
REMARK  199  A    between atoms: _507  and  _508
REMARK  200  A    between atoms: _513  and  _515
REMARK  201  A    between atoms: _515  and  _516
REMARK  202  A    between atoms: _515  and  _518
REMARK  203  A    between atoms: _518  and  _519
REMARK  204  A    between atoms: _529  and  _531
REMARK  205  A    between atoms: _531  and  _532
REMARK  206  A    between atoms: _531  and  _534
REMARK  207  A    between atoms: _534  and  _535
REMARK  208  A    between atoms: _538  and  _540
REMARK  209  A    between atoms: _540  and  _541
REMARK  210  A    between atoms: _540  and  _543
REMARK  211  A    between atoms: _543  and  _544
REMARK  212  A    between atoms: _549  and  _550
REMARK  213  A    between atoms: _552  and  _554
REMARK  214  A    between atoms: _554  and  _555
REMARK  215  A    between atoms: _554  and  _557
REMARK  216  A    between atoms: _557  and  _558
REMARK  217  A    between atoms: _561  and  _563
REMARK  218  A    between atoms: _563  and  _564
REMARK  219  A    between atoms: _563  and  _566
REMARK  220  A    between atoms: _566  and  _567
REMARK  221  A    between atoms: _567  and  _568
REMARK  222  A    between atoms: _571  and  _573
REMARK  223  A    between atoms: _573  and  _574
REMARK  224  A    between atoms: _573  and  _576
REMARK  225  A    between atoms: _576  and  _577
REMARK  226  A    between atoms: _582  and  _584
REMARK  227  A    between atoms: _584  and  _585
REMARK  228  A    between atoms: _587  and  _589
REMARK  229  A    between atoms: _589  and  _590
REMARK  230  A    between atoms: _589  and  _592
REMARK  231  A    between atoms: _592  and  _593
REMARK  232  A    between atoms: _593  and  _594
REMARK  233  A    between atoms: _596  and  _598
REMARK  234  A    between atoms: _598  and  _599
REMARK  235  A    between atoms: _598  and  _601
REMARK  236  A    between atoms: _601  and  _602
REMARK  237  A    between atoms: _605  and  _607
REMARK  238  A    between atoms: _607  and  _608
REMARK  239  A    between atoms: _607  and  _610
REMARK  240  A    between atoms: _610  and  _611
REMARK  241  A    between atoms: _621  and  _623
REMARK  242  A    between atoms: _623  and  _624
REMARK  243  A    between atoms: _623  and  _626
REMARK  244  A    between atoms: _626  and  _627
REMARK  245  A    between atoms: _629  and  _631
REMARK  246  A    between atoms: _631  and  _632
REMARK  247  A    between atoms: _631  and  _634
REMARK  248  A    between atoms: _634  and  _635
REMARK  249  A    between atoms: _640  and  _642
REMARK  250  A    between atoms: _642  and  _643
REMARK  251  A    between atoms: _642  and  _645
REMARK  252  A    between atoms: _645  and  _646
REMARK  253  A    between atoms: _652  and  _654
REMARK  254  A    between atoms: _654  and  _655
REMARK  255  A    between atoms: _654  and  _657
REMARK  256  A    between atoms: _657  and  _658
REMARK  257  A    between atoms: _658  and  _659
REMARK  258  A    between atoms: _662  and  _664
REMARK  259  A    between atoms: _664  and  _665
REMARK  260  A    between atoms: _664  and  _667
REMARK  261  A    between atoms: _667  and  _668
REMARK  262  A    between atoms: _678  and  _680
REMARK  263  A    between atoms: _680  and  _681
REMARK  264  A    between atoms: _680  and  _683
REMARK  265  A    between atoms: _683  and  _684
REMARK  266  A    between atoms: _687  and  _689
REMARK  267  A    between atoms: _689  and  _690
REMARK  268  A    between atoms: _689  and  _692
REMARK  269  A    between atoms: _692  and  _693
REMARK  270  A    between atoms: _695  and  _697
REMARK  271  A    between atoms: _697  and  _698
REMARK  272  A    between atoms: _697  and  _700
REMARK  273  A    between atoms: _700  and  _701
REMARK  274  A    between atoms: _703  and  _705
REMARK  275  A    between atoms: _705  and  _706
REMARK  276  A    between atoms: _705  and  _708
REMARK  277  A    between atoms: _708  and  _709
REMARK                            x       y       z     vdW  Elec       q    Type
REMARK                         _______ _______ _______ _____ _____    ______ ____
ROOT
ATOM      1  O   HOH     1      -4.922   3.044  46.485  0.00  0.00    +0.000 OA
ENDROOT
TORSDOF 0
REMARK  Name = ../refined-set-2016/4qll/4qll_pocket.pdb
REMARK  277 active torsions:
REMARK  status: ('A' for Active; 'I' for Inactive)
REMARK    1  A    between atoms: _1  and  _3
REMARK    2  A    between atoms: _3  and  _4
REMARK    3  A    between atoms: _3  and  _6
REMARK    4  A    between atoms: _9  and  _11
REMARK    5  A    between atoms: _11  and  _12
REMARK    6  A    between atoms: _11  and  _14
REMARK    7  A    between atoms: _14  and  _15
REMARK    8  A    between atoms: _18  and  _20
REMARK    9  A    between atoms: _20  and  _21
REMARK   10  A    between atoms: _20  and  _23
REMARK   11  A    between atoms: _23  and  _24
REMARK   12  A    between atoms: _26  and  _28
REMARK   13  A    between atoms: _28  and  _29
REMARK   14  A    between atoms: _28  and  _31
REMARK   15  A    between atoms: _31  and  _32
REMARK   16  A    between atoms: _32  and  _33
REMARK   17  A    between atoms: _38  and  _40
REMARK   18  A    between atoms: _40  and  _41
REMARK   19  A    between atoms: _40  and  _43
REMARK   20  A    between atoms: _43  and  _44
REMARK   21  A    between atoms: _44  and  _45
REMARK   22  A    between atoms: _45  and  _46
REMARK   23  A    between atoms: _55  and  _57
REMARK   24  A    between atoms: _57  and  _58
REMARK   25  A    between atoms: _57  and  _60
REMARK   26  A    between atoms: _60  and  _61
REMARK   27  A    between atoms: _66  and  _68
REMARK   28  A    between atoms: _68  and  _69
REMARK   29  A    between atoms: _68  and  _71
REMARK   30  A    between atoms: _71  and  _72
REMARK   31  A    between atoms: _77  and  _78
REMARK   32  A    between atoms: _80  and  _82
REMARK   33  A    between atoms: _82  and  _83
REMARK   34  A    between atoms: _82  and  _85
REMARK   35  A    between atoms: _85  and  _86
REMARK   36  A    between atoms: _91  and  _93
REMARK   37  A    between atoms: _93  and  _94
REMARK   38  A    between atoms: _93  and  _96
REMARK   39  A    between atoms: _96  and  _97
REMARK   40  A    between atoms: _97  and  _98
REMARK   41  A    between atoms: _103  and  _105
REMARK   42  A    between atoms: _105  and  _106
REMARK   43  A    between atoms: _105  and  _108
REMARK   44  A    between atoms: _108  and  _109
REMARK   45  A    between atoms: _109  and  _110
REMARK   46  A    between atoms: _110  and  _111
REMARK   47  A    between atoms: _120  and  _122
REMARK   48  A    between atoms: _122  and  _123
REMARK   49  A    between atoms: _122  and  _125
REMARK   50  A    between atoms: _125  and  _126
REMARK   51  A    between atoms: _129  and  _131
REMARK   52  A    between atoms: _131  and  _132
REMARK   53  A    between atoms: _131  and  _134
REMARK   54  A    between atoms: _134  and  _135
REMARK   55  A    between atoms: _138  and  _140
REMARK   56  A    between atoms: _140  and  _141
REMARK   57  A    between atoms: _140  and  _143
REMARK   58  A    between atoms: _143  and  _144
REMARK   59  A    between atoms: _147  and  _149
REMARK   60  A    between atoms: _149  and  _150
REMARK   61  A    between atoms: _149  and  _152
REMARK   62  A    between atoms: _152  and  _153
REMARK   63  A    between atoms: _156  and  _158
REMARK   64  A    between atoms: _158  and  _159
REMARK   65  A    between atoms: _162  and  _164
REMARK   66  A    between atoms: _164  and  _165
REMARK   67  A    between atoms: _164  and  _167
REMARK   68  A    between atoms: _167  and  _168
REMARK   69  A    between atoms: _171  and  _173
REMARK   70  A    between atoms: _173  and  _174
REMARK   71  A    between atoms: _173  and  _176
REMARK   72  A    between atoms: _176  and  _177
REMARK   73  A    between atoms: _182  and  _184
REMARK   74  A    between atoms: _184  and  _185
REMARK   75  A    between atoms: _184  and  _187
REMARK   76  A    between atoms: _190  and  _192
REMARK   77  A    between atoms: _192  and  _193
REMARK   78  A    between atoms: _192  and  _195
REMARK   79  A    between atoms: _195  and  _196
REMARK   80  A    between atoms: _199  and  _201
REMARK   81  A    between atoms: _201  and  _202
REMARK   82  A    between atoms: _201  and  _204
REMARK   83  A    between atoms: _204  and  _205
REMARK   84  A    between atoms: _208  and  _210
REMARK   85  A    between atoms: _210  and  _211
REMARK   86  A    between atoms: _210  and  _213
REMARK   87  A    between atoms: _213  and  _214
REMARK   88  A    between atoms: _220  and  _222
REMARK   89  A    between atoms: _222  and  _223
REMARK   90  A    between atoms: _222  and  _225
REMARK   91  A    between atoms: _225  and  _226
REMARK   92  A    between atoms: _231  and  _233
REMARK   93  A    between atoms: _233  and  _234
REMARK   94  A    between atoms: _233  and  _236
REMARK   95  A    between atoms: _236  and  _237
REMARK   96  A    between atoms: _247  and  _249
REMARK   97  A    between atoms: _249  and  _250
REMARK   98  A    between atoms: _249  and  _252
REMARK   99  A    between atoms: _252  and  _253
REMARK  100  A    between atoms: _258  and  _259
REMARK  101  A    between atoms: _261  and  _263
REMARK  102  A    between atoms: _263  and  _264
REMARK  103  A    between atoms: _267  and  _269
REMARK  104  A    between atoms: _269  and  _270
REMARK  105  A    between atoms: _269  and  _272
REMARK  106  A    between atoms: _272  and  _273
REMARK  107  A    between atoms: _279  and  _281
REMARK  108  A    between atoms: _281  and  _282
REMARK  109  A    between atoms: _281  and  _284
REMARK  110  A    between atoms: _284  and  _285
REMARK  111  A    between atoms: _290  and  _292
REMARK  112  A    between atoms: _292  and  _293
REMARK  113  A    between atoms: _292  and  _295
REMARK  114  A    between atoms: _295  and  _296
REMARK  115  A    between atoms: _301  and  _303
REMARK  116  A    between atoms: _303  and  _304
REMARK  117  A    between atoms: _303  and  _306
REMARK  118  A    between atoms: _306  and  _307
REMARK  119  A    between atoms: _307  and  _308
REMARK  120  A    between atoms: _313  and  _315
REMARK  121  A    between atoms: _315  and  _316
REMARK  122  A    between atoms: _315  and  _318
REMARK  123  A    between atoms: _318  and  _319
REMARK  124  A    between atoms: _324  and  _325
REMARK  125  A    between atoms: _327  and  _329
REMARK  126  A    between atoms: _329  and  _330
REMARK  127  A    between atoms: _329  and  _332
REMARK  128  A    between atoms: _332  and  _333
REMARK  129  A    between atoms: _336  and  _338
REMARK  130  A    between atoms: _338  and  _339
REMARK  131  A    between atoms: _342  and  _344
REMARK  132  A    between atoms: _344  and  _345
REMARK  133  A    between atoms: _344  and  _347
REMARK  134  A    between atoms: _347  and  _348
REMARK  135  A    between atoms: _350  and  _352
REMARK  136  A    between atoms: _352  and  _353
REMARK  137  A    between atoms: _352  and  _355
REMARK  138  A    between atoms: _355  and  _356
REMARK  139  A    between atoms: _361  and  _362
REMARK  140  A    between atoms: _364  and  _366
REMARK  141  A    between atoms: _366  and  _367
REMARK  142  A    between atoms: _366  and  _369
REMARK  143  A    between atoms: _369  and  _370
REMARK  144  A    between atoms: _370  and  _371
REMARK  145  A    between atoms: _373  and  _375
REMARK  146  A    between atoms: _375  and  _376
REMARK  147  A    between atoms: _375  and  _378
REMARK  148  A    between atoms: _378  and  _379
REMARK  149  A    between atoms: _379  and  _380
REMARK  150  A    between atoms: _380  and  _381
REMARK  151  A    between atoms: _381  and  _382
REMARK  152  A    between atoms: _386  and  _388
REMARK  153  A    between atoms: _388  and  _389
REMARK  154  A    between atoms: _388  and  _391
REMARK  155  A    between atoms: _391  and  _392
REMARK  156  A    between atoms: _397  and  _398
REMARK  157  A    between atoms: _400  and  _402
REMARK  158  A    between atoms: _402  and  _403
REMARK  159  A    between atoms: _402  and  _405
REMARK  160  A    between atoms: _405  and  _406
REMARK  161  A    between atoms: _408  and  _410
REMARK  162  A    between atoms: _410  and  _411
REMARK  163  A    between atoms: _414  and  _416
REMARK  164  A    between atoms: _416  and  _417
REMARK  165  A    between atoms: _416  and  _419
REMARK  166  A    between atoms: _419  and  _420
REMARK  167  A    between atoms: _423  and  _425
REMARK  168  A    between atoms: _425  and  _426
REMARK  169  A    between atoms: _425  and  _428
REMARK  170  A    between atoms: _428  and  _429
REMARK  171  A    between atoms: _439  and  _441
REMARK  172  A    between atoms: _441  and  _442
REMARK  173  A    between atoms: _441  and  _444
REMARK  174  A    between atoms: _444  and  _445
REMARK  175  A    between atoms: _445  and  _446
REMARK  176  A    between atoms: _451  and  _453
REMARK  177  A    between atoms: _453  and  _454
REMARK  178  A    between atoms: _453  and  _456
REMARK  179  A    between atoms: _459  and  _461
REMARK  180  A    between atoms: _461  and  _462
REMARK  181  A    between atoms: _461  and  _464
REMARK  182  A    between atoms: _464  and  _465
REMARK  183  A    between atoms: _468  and  _470
REMARK  184  A    between atoms: _470  and  _471
REMARK  185  A    between atoms: _474  and  _476
REMARK  186  A    between atoms: _476  and  _477
REMARK  187  A    between atoms: _476  and  _479
REMARK  188  A    between atoms: _482  and  _484
REMARK  189  A    between atoms: _484  and  _485
REMARK  190  A    between atoms: _484  and  _487
REMARK  191  A    between atoms: _487  and  _488
REMARK  192  A    between atoms: _494  and  _496
REMARK  193  A    between atoms: _496  and  _497
REMARK  194  A    between atoms: _496  and  _499
REMARK  195  A    between atoms: _499  and  _500
REMARK  196  A    between atoms: _502  and  _504
REMARK  197  A    between atoms: _504  and  _505
REMARK  198  A    between atoms: _504  and  _507
REMARK  199  A    between atoms: _507  and  _508
REMARK  200  A    between atoms: _513  and  _515
REMARK  201  A    between atoms: _515  and  _516
REMARK  202  A    between atoms: _515  and  _518
REMARK  203  A    between atoms: _518  and  _519
REMARK  204  A    between atoms: _529  and  _531
REMARK  205  A    between atoms: _531  and  _532
REMARK  206  A    between atoms: _531  and  _534
REMARK  207  A    between atoms: _534  and  _535
REMARK  208  A    between atoms: _538  and  _540
REMARK  209  A    between atoms: _540  and  _541
REMARK  210  A    between atoms: _540  and  _543
REMARK  211  A    between atoms: _543  and  _544
REMARK  212  A    between atoms: _549  and  _550
REMARK  213  A    between atoms: _552  and  _554
REMARK  214  A    between atoms: _554  and  _555
REMARK  215  A    between atoms: _554  and  _557
REMARK  216  A    between atoms: _557  and  _558
REMARK  217  A    between atoms: _561  and  _563
REMARK  218  A    between atoms: _563  and  _564
REMARK  219  A    between atoms: _563  and  _566
REMARK  220  A    between atoms: _566  and  _567
REMARK  221  A    between atoms: _567  and  _568
REMARK  222  A    between atoms: _571  and  _573
REMARK  223  A    between atoms: _573  and  _574
REMARK  224  A    between atoms: _573  and  _576
REMARK  225  A    between atoms: _576  and  _577
REMARK  226  A    between atoms: _582  and  _584
REMARK  227  A    between atoms: _584  and  _585
REMARK  228  A    between atoms: _587  and  _589
REMARK  229  A    between atoms: _589  and  _590
REMARK  230  A    between atoms: _589  and  _592
REMARK  231  A    between atoms: _592  and  _593
REMARK  232  A    between atoms: _593  and  _594
REMARK  233  A    between atoms: _596  and  _598
REMARK  234  A    between atoms: _598  and  _599
REMARK  235  A    between atoms: _598  and  _601
REMARK  236  A    between atoms: _601  and  _602
REMARK  237  A    between atoms: _605  and  _607
REMARK  238  A    between atoms: _607  and  _608
REMARK  239  A    between atoms: _607  and  _610
REMARK  240  A    between atoms: _610  and  _611
REMARK  241  A    between atoms: _621  and  _623
REMARK  242  A    between atoms: _623  and  _624
REMARK  243  A    between atoms: _623  and  _626
REMARK  244  A    between atoms: _626  and  _627
REMARK  245  A    between atoms: _629  and  _631
REMARK  246  A    between atoms: _631  and  _632
REMARK  247  A    between atoms: _631  and  _634
REMARK  248  A    between atoms: _634  and  _635
REMARK  249  A    between atoms: _640  and  _642
REMARK  250  A    between atoms: _642  and  _643
REMARK  251  A    between atoms: _642  and  _645
REMARK  252  A    between atoms: _645  and  _646
REMARK  253  A    between atoms: _652  and  _654
REMARK  254  A    between atoms: _654  and  _655
REMARK  255  A    between atoms: _654  and  _657
REMARK  256  A    between atoms: _657  and  _658
REMARK  257  A    between atoms: _658  and  _659
REMARK  258  A    between atoms: _662  and  _664
REMARK  259  A    between atoms: _664  and  _665
REMARK  260  A    between atoms: _664  and  _667
REMARK  261  A    between atoms: _667  and  _668
REMARK  262  A    between atoms: _678  and  _680
REMARK  263  A    between atoms: _680  and  _681
REMARK  264  A    between atoms: _680  and  _683
REMARK  265  A    between atoms: _683  and  _684
REMARK  266  A    between atoms: _687  and  _689
REMARK  267  A    between atoms: _689  and  _690
REMARK  268  A    between atoms: _689  and  _692
REMARK  269  A    between atoms: _692  and  _693
REMARK  270  A    between atoms: _695  and  _697
REMARK  271  A    between atoms: _697  and  _698
REMARK  272  A    between atoms: _697  and  _700
REMARK  273  A    between atoms: _700  and  _701
REMARK  274  A    between atoms: _703  and  _705
REMARK  275  A    between atoms: _705  and  _706
REMARK  276  A    between atoms: _705  and  _708
REMARK  277  A    between atoms: _708  and  _709
REMARK                            x       y       z     vdW  Elec       q    Type
REMARK                         _______ _______ _______ _____ _____    ______ ____
ROOT
ATOM      1  O   HOH     1      -4.267   1.810  43.938  0.00  0.00    +0.000 OA
ENDROOT
TORSDOF 0
REMARK  Name = ../refined-set-2016/4qll/4qll_pocket.pdb
REMARK  277 active torsions:
REMARK  status: ('A' for Active; 'I' for Inactive)
REMARK    1  A    between atoms: _1  and  _3
REMARK    2  A    between atoms: _3  and  _4
REMARK    3  A    between atoms: _3  and  _6
REMARK    4  A    between atoms: _9  and  _11
REMARK    5  A    between atoms: _11  and  _12
REMARK    6  A    between atoms: _11  and  _14
REMARK    7  A    between atoms: _14  and  _15
REMARK    8  A    between atoms: _18  and  _20
REMARK    9  A    between atoms: _20  and  _21
REMARK   10  A    between atoms: _20  and  _23
REMARK   11  A    between atoms: _23  and  _24
REMARK   12  A    between atoms: _26  and  _28
REMARK   13  A    between atoms: _28  and  _29
REMARK   14  A    between atoms: _28  and  _31
REMARK   15  A    between atoms: _31  and  _32
REMARK   16  A    between atoms: _32  and  _33
REMARK   17  A    between atoms: _38  and  _40
REMARK   18  A    between atoms: _40  and  _41
REMARK   19  A    between atoms: _40  and  _43
REMARK   20  A    between atoms: _43  and  _44
REMARK   21  A    between atoms: _44  and  _45
REMARK   22  A    between atoms: _45  and  _46
REMARK   23  A    between atoms: _55  and  _57
REMARK   24  A    between atoms: _57  and  _58
REMARK   25  A    between atoms: _57  and  _60
REMARK   26  A    between atoms: _60  and  _61
REMARK   27  A    between atoms: _66  and  _68
REMARK   28  A    between atoms: _68  and  _69
REMARK   29  A    between atoms: _68  and  _71
REMARK   30  A    between atoms: _71  and  _72
REMARK   31  A    between atoms: _77  and  _78
REMARK   32  A    between atoms: _80  and  _82
REMARK   33  A    between atoms: _82  and  _83
REMARK   34  A    between atoms: _82  and  _85
REMARK   35  A    between atoms: _85  and  _86
REMARK   36  A    between atoms: _91  and  _93
REMARK   37  A    between atoms: _93  and  _94
REMARK   38  A    between atoms: _93  and  _96
REMARK   39  A    between atoms: _96  and  _97
REMARK   40  A    between atoms: _97  and  _98
REMARK   41  A    between atoms: _103  and  _105
REMARK   42  A    between atoms: _105  and  _106
REMARK   43  A    between atoms: _105  and  _108
REMARK   44  A    between atoms: _108  and  _109
REMARK   45  A    between atoms: _109  and  _110
REMARK   46  A    between atoms: _110  and  _111
REMARK   47  A    between atoms: _120  and  _122
REMARK   48  A    between atoms: _122  and  _123
REMARK   49  A    between atoms: _122  and  _125
REMARK   50  A    between atoms: _125  and  _126
REMARK   51  A    between atoms: _129  and  _131
REMARK   52  A    between atoms: _131  and  _132
REMARK   53  A    between atoms: _131  and  _134
REMARK   54  A    between atoms: _134  and  _135
REMARK   55  A    between atoms: _138  and  _140
REMARK   56  A    between atoms: _140  and  _141
REMARK   57  A    between atoms: _140  and  _143
REMARK   58  A    between atoms: _143  and  _144
REMARK   59  A    between atoms: _147  and  _149
REMARK   60  A    between atoms: _149  and  _150
REMARK   61  A    between atoms: _149  and  _152
REMARK   62  A    between atoms: _152  and  _153
REMARK   63  A    between atoms: _156  and  _158
REMARK   64  A    between atoms: _158  and  _159
REMARK   65  A    between atoms: _162  and  _164
REMARK   66  A    between atoms: _164  and  _165
REMARK   67  A    between atoms: _164  and  _167
REMARK   68  A    between atoms: _167  and  _168
REMARK   69  A    between atoms: _171  and  _173
REMARK   70  A    between atoms: _173  and  _174
REMARK   71  A    between atoms: _173  and  _176
REMARK   72  A    between atoms: _176  and  _177
REMARK   73  A    between atoms: _182  and  _184
REMARK   74  A    between atoms: _184  and  _185
REMARK   75  A    between atoms: _184  and  _187
REMARK   76  A    between atoms: _190  and  _192
REMARK   77  A    between atoms: _192  and  _193
REMARK   78  A    between atoms: _192  and  _195
REMARK   79  A    between atoms: _195  and  _196
REMARK   80  A    between atoms: _199  and  _201
REMARK   81  A    between atoms: _201  and  _202
REMARK   82  A    between atoms: _201  and  _204
REMARK   83  A    between atoms: _204  and  _205
REMARK   84  A    between atoms: _208  and  _210
REMARK   85  A    between atoms: _210  and  _211
REMARK   86  A    between atoms: _210  and  _213
REMARK   87  A    between atoms: _213  and  _214
REMARK   88  A    between atoms: _220  and  _222
REMARK   89  A    between atoms: _222  and  _223
REMARK   90  A    between atoms: _222  and  _225
REMARK   91  A    between atoms: _225  and  _226
REMARK   92  A    between atoms: _231  and  _233
REMARK   93  A    between atoms: _233  and  _234
REMARK   94  A    between atoms: _233  and  _236
REMARK   95  A    between atoms: _236  and  _237
REMARK   96  A    between atoms: _247  and  _249
REMARK   97  A    between atoms: _249  and  _250
REMARK   98  A    between atoms: _249  and  _252
REMARK   99  A    between atoms: _252  and  _253
REMARK  100  A    between atoms: _258  and  _259
REMARK  101  A    between atoms: _261  and  _263
REMARK  102  A    between atoms: _263  and  _264
REMARK  103  A    between atoms: _267  and  _269
REMARK  104  A    between atoms: _269  and  _270
REMARK  105  A    between atoms: _269  and  _272
REMARK  106  A    between atoms: _272  and  _273
REMARK  107  A    between atoms: _279  and  _281
REMARK  108  A    between atoms: _281  and  _282
REMARK  109  A    between atoms: _281  and  _284
REMARK  110  A    between atoms: _284  and  _285
REMARK  111  A    between atoms: _290  and  _292
REMARK  112  A    between atoms: _292  and  _293
REMARK  113  A    between atoms: _292  and  _295
REMARK  114  A    between atoms: _295  and  _296
REMARK  115  A    between atoms: _301  and  _303
REMARK  116  A    between atoms: _303  and  _304
REMARK  117  A    between atoms: _303  and  _306
REMARK  118  A    between atoms: _306  and  _307
REMARK  119  A    between atoms: _307  and  _308
REMARK  120  A    between atoms: _313  and  _315
REMARK  121  A    between atoms: _315  and  _316
REMARK  122  A    between atoms: _315  and  _318
REMARK  123  A    between atoms: _318  and  _319
REMARK  124  A    between atoms: _324  and  _325
REMARK  125  A    between atoms: _327  and  _329
REMARK  126  A    between atoms: _329  and  _330
REMARK  127  A    between atoms: _329  and  _332
REMARK  128  A    between atoms: _332  and  _333
REMARK  129  A    between atoms: _336  and  _338
REMARK  130  A    between atoms: _338  and  _339
REMARK  131  A    between atoms: _342  and  _344
REMARK  132  A    between atoms: _344  and  _345
REMARK  133  A    between atoms: _344  and  _347
REMARK  134  A    between atoms: _347  and  _348
REMARK  135  A    between atoms: _350  and  _352
REMARK  136  A    between atoms: _352  and  _353
REMARK  137  A    between atoms: _352  and  _355
REMARK  138  A    between atoms: _355  and  _356
REMARK  139  A    between atoms: _361  and  _362
REMARK  140  A    between atoms: _364  and  _366
REMARK  141  A    between atoms: _366  and  _367
REMARK  142  A    between atoms: _366  and  _369
REMARK  143  A    between atoms: _369  and  _370
REMARK  144  A    between atoms: _370  and  _371
REMARK  145  A    between atoms: _373  and  _375
REMARK  146  A    between atoms: _375  and  _376
REMARK  147  A    between atoms: _375  and  _378
REMARK  148  A    between atoms: _378  and  _379
REMARK  149  A    between atoms: _379  and  _380
REMARK  150  A    between atoms: _380  and  _381
REMARK  151  A    between atoms: _381  and  _382
REMARK  152  A    between atoms: _386  and  _388
REMARK  153  A    between atoms: _388  and  _389
REMARK  154  A    between atoms: _388  and  _391
REMARK  155  A    between atoms: _391  and  _392
REMARK  156  A    between atoms: _397  and  _398
REMARK  157  A    between atoms: _400  and  _402
REMARK  158  A    between atoms: _402  and  _403
REMARK  159  A    between atoms: _402  and  _405
REMARK  160  A    between atoms: _405  and  _406
REMARK  161  A    between atoms: _408  and  _410
REMARK  162  A    between atoms: _410  and  _411
REMARK  163  A    between atoms: _414  and  _416
REMARK  164  A    between atoms: _416  and  _417
REMARK  165  A    between atoms: _416  and  _419
REMARK  166  A    between atoms: _419  and  _420
REMARK  167  A    between atoms: _423  and  _425
REMARK  168  A    between atoms: _425  and  _426
REMARK  169  A    between atoms: _425  and  _428
REMARK  170  A    between atoms: _428  and  _429
REMARK  171  A    between atoms: _439  and  _441
REMARK  172  A    between atoms: _441  and  _442
REMARK  173  A    between atoms: _441  and  _444
REMARK  174  A    between atoms: _444  and  _445
REMARK  175  A    between atoms: _445  and  _446
REMARK  176  A    between atoms: _451  and  _453
REMARK  177  A    between atoms: _453  and  _454
REMARK  178  A    between atoms: _453  and  _456
REMARK  179  A    between atoms: _459  and  _461
REMARK  180  A    between atoms: _461  and  _462
REMARK  181  A    between atoms: _461  and  _464
REMARK  182  A    between atoms: _464  and  _465
REMARK  183  A    between atoms: _468  and  _470
REMARK  184  A    between atoms: _470  and  _471
REMARK  185  A    between atoms: _474  and  _476
REMARK  186  A    between atoms: _476  and  _477
REMARK  187  A    between atoms: _476  and  _479
REMARK  188  A    between atoms: _482  and  _484
REMARK  189  A    between atoms: _484  and  _485
REMARK  190  A    between atoms: _484  and  _487
REMARK  191  A    between atoms: _487  and  _488
REMARK  192  A    between atoms: _494  and  _496
REMARK  193  A    between atoms: _496  and  _497
REMARK  194  A    between atoms: _496  and  _499
REMARK  195  A    between atoms: _499  and  _500
REMARK  196  A    between atoms: _502  and  _504
REMARK  197  A    between atoms: _504  and  _505
REMARK  198  A    between atoms: _504  and  _507
REMARK  199  A    between atoms: _507  and  _508
REMARK  200  A    between atoms: _513  and  _515
REMARK  201  A    between atoms: _515  and  _516
REMARK  202  A    between atoms: _515  and  _518
REMARK  203  A    between atoms: _518  and  _519
REMARK  204  A    between atoms: _529  and  _531
REMARK  205  A    between atoms: _531  and  _532
REMARK  206  A    between atoms: _531  and  _534
REMARK  207  A    between atoms: _534  and  _535
REMARK  208  A    between atoms: _538  and  _540
REMARK  209  A    between atoms: _540  and  _541
REMARK  210  A    between atoms: _540  and  _543
REMARK  211  A    between atoms: _543  and  _544
REMARK  212  A    between atoms: _549  and  _550
REMARK  213  A    between atoms: _552  and  _554
REMARK  214  A    between atoms: _554  and  _555
REMARK  215  A    between atoms: _554  and  _557
REMARK  216  A    between atoms: _557  and  _558
REMARK  217  A    between atoms: _561  and  _563
REMARK  218  A    between atoms: _563  and  _564
REMARK  219  A    between atoms: _563  and  _566
REMARK  220  A    between atoms: _566  and  _567
REMARK  221  A    between atoms: _567  and  _568
REMARK  222  A    between atoms: _571  and  _573
REMARK  223  A    between atoms: _573  and  _574
REMARK  224  A    between atoms: _573  and  _576
REMARK  225  A    between atoms: _576  and  _577
REMARK  226  A    between atoms: _582  and  _584
REMARK  227  A    between atoms: _584  and  _585
REMARK  228  A    between atoms: _587  and  _589
REMARK  229  A    between atoms: _589  and  _590
REMARK  230  A    between atoms: _589  and  _592
REMARK  231  A    between atoms: _592  and  _593
REMARK  232  A    between atoms: _593  and  _594
REMARK  233  A    between atoms: _596  and  _598
REMARK  234  A    between atoms: _598  and  _599
REMARK  235  A    between atoms: _598  and  _601
REMARK  236  A    between atoms: _601  and  _602
REMARK  237  A    between atoms: _605  and  _607
REMARK  238  A    between atoms: _607  and  _608
REMARK  239  A    between atoms: _607  and  _610
REMARK  240  A    between atoms: _610  and  _611
REMARK  241  A    between atoms: _621  and  _623
REMARK  242  A    between atoms: _623  and  _624
REMARK  243  A    between atoms: _623  and  _626
REMARK  244  A    between atoms: _626  and  _627
REMARK  245  A    between atoms: _629  and  _631
REMARK  246  A    between atoms: _631  and  _632
REMARK  247  A    between atoms: _631  and  _634
REMARK  248  A    between atoms: _634  and  _635
REMARK  249  A    between atoms: _640  and  _642
REMARK  250  A    between atoms: _642  and  _643
REMARK  251  A    between atoms: _642  and  _645
REMARK  252  A    between atoms: _645  and  _646
REMARK  253  A    between atoms: _652  and  _654
REMARK  254  A    between atoms: _654  and  _655
REMARK  255  A    between atoms: _654  and  _657
REMARK  256  A    between atoms: _657  and  _658
REMARK  257  A    between atoms: _658  and  _659
REMARK  258  A    between atoms: _662  and  _664
REMARK  259  A    between atoms: _664  and  _665
REMARK  260  A    between atoms: _664  and  _667
REMARK  261  A    between atoms: _667  and  _668
REMARK  262  A    between atoms: _678  and  _680
REMARK  263  A    between atoms: _680  and  _681
REMARK  264  A    between atoms: _680  and  _683
REMARK  265  A    between atoms: _683  and  _684
REMARK  266  A    between atoms: _687  and  _689
REMARK  267  A    between atoms: _689  and  _690
REMARK  268  A    between atoms: _689  and  _692
REMARK  269  A    between atoms: _692  and  _693
REMARK  270  A    between atoms: _695  and  _697
REMARK  271  A    between atoms: _697  and  _698
REMARK  272  A    between atoms: _697  and  _700
REMARK  273  A    between atoms: _700  and  _701
REMARK  274  A    between atoms: _703  and  _705
REMARK  275  A    between atoms: _705  and  _706
REMARK  276  A    between atoms: _705  and  _708
REMARK  277  A    between atoms: _708  and  _709
REMARK                            x       y       z     vdW  Elec       q    Type
REMARK                         _______ _______ _______ _____ _____    ______ ____
ROOT
ATOM      1  O   HOH     1      -1.498   1.198  46.829  0.00  0.00    +0.000 OA
ENDROOT
TORSDOF 0
REMARK  Name = ../refined-set-2016/4qll/4qll_pocket.pdb
REMARK  277 active torsions:
REMARK  status: ('A' for Active; 'I' for Inactive)
REMARK    1  A    between atoms: _1  and  _3
REMARK    2  A    between atoms: _3  and  _4
REMARK    3  A    between atoms: _3  and  _6
REMARK    4  A    between atoms: _9  and  _11
REMARK    5  A    between atoms: _11  and  _12
REMARK    6  A    between atoms: _11  and  _14
REMARK    7  A    between atoms: _14  and  _15
REMARK    8  A    between atoms: _18  and  _20
REMARK    9  A    between atoms: _20  and  _21
REMARK   10  A    between atoms: _20  and  _23
REMARK   11  A    between atoms: _23  and  _24
REMARK   12  A    between atoms: _26  and  _28
REMARK   13  A    between atoms: _28  and  _29
REMARK   14  A    between atoms: _28  and  _31
REMARK   15  A    between atoms: _31  and  _32
REMARK   16  A    between atoms: _32  and  _33
REMARK   17  A    between atoms: _38  and  _40
REMARK   18  A    between atoms: _40  and  _41
REMARK   19  A    between atoms: _40  and  _43
REMARK   20  A    between atoms: _43  and  _44
REMARK   21  A    between atoms: _44  and  _45
REMARK   22  A    between atoms: _45  and  _46
REMARK   23  A    between atoms: _55  and  _57
REMARK   24  A    between atoms: _57  and  _58
REMARK   25  A    between atoms: _57  and  _60
REMARK   26  A    between atoms: _60  and  _61
REMARK   27  A    between atoms: _66  and  _68
REMARK   28  A    between atoms: _68  and  _69
REMARK   29  A    between atoms: _68  and  _71
REMARK   30  A    between atoms: _71  and  _72
REMARK   31  A    between atoms: _77  and  _78
REMARK   32  A    between atoms: _80  and  _82
REMARK   33  A    between atoms: _82  and  _83
REMARK   34  A    between atoms: _82  and  _85
REMARK   35  A    between atoms: _85  and  _86
REMARK   36  A    between atoms: _91  and  _93
REMARK   37  A    between atoms: _93  and  _94
REMARK   38  A    between atoms: _93  and  _96
REMARK   39  A    between atoms: _96  and  _97
REMARK   40  A    between atoms: _97  and  _98
REMARK   41  A    between atoms: _103  and  _105
REMARK   42  A    between atoms: _105  and  _106
REMARK   43  A    between atoms: _105  and  _108
REMARK   44  A    between atoms: _108  and  _109
REMARK   45  A    between atoms: _109  and  _110
REMARK   46  A    between atoms: _110  and  _111
REMARK   47  A    between atoms: _120  and  _122
REMARK   48  A    between atoms: _122  and  _123
REMARK   49  A    between atoms: _122  and  _125
REMARK   50  A    between atoms: _125  and  _126
REMARK   51  A    between atoms: _129  and  _131
REMARK   52  A    between atoms: _131  and  _132
REMARK   53  A    between atoms: _131  and  _134
REMARK   54  A    between atoms: _134  and  _135
REMARK   55  A    between atoms: _138  and  _140
REMARK   56  A    between atoms: _140  and  _141
REMARK   57  A    between atoms: _140  and  _143
REMARK   58  A    between atoms: _143  and  _144
REMARK   59  A    between atoms: _147  and  _149
REMARK   60  A    between atoms: _149  and  _150
REMARK   61  A    between atoms: _149  and  _152
REMARK   62  A    between atoms: _152  and  _153
REMARK   63  A    between atoms: _156  and  _158
REMARK   64  A    between atoms: _158  and  _159
REMARK   65  A    between atoms: _162  and  _164
REMARK   66  A    between atoms: _164  and  _165
REMARK   67  A    between atoms: _164  and  _167
REMARK   68  A    between atoms: _167  and  _168
REMARK   69  A    between atoms: _171  and  _173
REMARK   70  A    between atoms: _173  and  _174
REMARK   71  A    between atoms: _173  and  _176
REMARK   72  A    between atoms: _176  and  _177
REMARK   73  A    between atoms: _182  and  _184
REMARK   74  A    between atoms: _184  and  _185
REMARK   75  A    between atoms: _184  and  _187
REMARK   76  A    between atoms: _190  and  _192
REMARK   77  A    between atoms: _192  and  _193
REMARK   78  A    between atoms: _192  and  _195
REMARK   79  A    between atoms: _195  and  _196
REMARK   80  A    between atoms: _199  and  _201
REMARK   81  A    between atoms: _201  and  _202
REMARK   82  A    between atoms: _201  and  _204
REMARK   83  A    between atoms: _204  and  _205
REMARK   84  A    between atoms: _208  and  _210
REMARK   85  A    between atoms: _210  and  _211
REMARK   86  A    between atoms: _210  and  _213
REMARK   87  A    between atoms: _213  and  _214
REMARK   88  A    between atoms: _220  and  _222
REMARK   89  A    between atoms: _222  and  _223
REMARK   90  A    between atoms: _222  and  _225
REMARK   91  A    between atoms: _225  and  _226
REMARK   92  A    between atoms: _231  and  _233
REMARK   93  A    between atoms: _233  and  _234
REMARK   94  A    between atoms: _233  and  _236
REMARK   95  A    between atoms: _236  and  _237
REMARK   96  A    between atoms: _247  and  _249
REMARK   97  A    between atoms: _249  and  _250
REMARK   98  A    between atoms: _249  and  _252
REMARK   99  A    between atoms: _252  and  _253
REMARK  100  A    between atoms: _258  and  _259
REMARK  101  A    between atoms: _261  and  _263
REMARK  102  A    between atoms: _263  and  _264
REMARK  103  A    between atoms: _267  and  _269
REMARK  104  A    between atoms: _269  and  _270
REMARK  105  A    between atoms: _269  and  _272
REMARK  106  A    between atoms: _272  and  _273
REMARK  107  A    between atoms: _279  and  _281
REMARK  108  A    between atoms: _281  and  _282
REMARK  109  A    between atoms: _281  and  _284
REMARK  110  A    between atoms: _284  and  _285
REMARK  111  A    between atoms: _290  and  _292
REMARK  112  A    between atoms: _292  and  _293
REMARK  113  A    between atoms: _292  and  _295
REMARK  114  A    between atoms: _295  and  _296
REMARK  115  A    between atoms: _301  and  _303
REMARK  116  A    between atoms: _303  and  _304
REMARK  117  A    between atoms: _303  and  _306
REMARK  118  A    between atoms: _306  and  _307
REMARK  119  A    between atoms: _307  and  _308
REMARK  120  A    between atoms: _313  and  _315
REMARK  121  A    between atoms: _315  and  _316
REMARK  122  A    between atoms: _315  and  _318
REMARK  123  A    between atoms: _318  and  _319
REMARK  124  A    between atoms: _324  and  _325
REMARK  125  A    between atoms: _327  and  _329
REMARK  126  A    between atoms: _329  and  _330
REMARK  127  A    between atoms: _329  and  _332
REMARK  128  A    between atoms: _332  and  _333
REMARK  129  A    between atoms: _336  and  _338
REMARK  130  A    between atoms: _338  and  _339
REMARK  131  A    between atoms: _342  and  _344
REMARK  132  A    between atoms: _344  and  _345
REMARK  133  A    between atoms: _344  and  _347
REMARK  134  A    between atoms: _347  and  _348
REMARK  135  A    between atoms: _350  and  _352
REMARK  136  A    between atoms: _352  and  _353
REMARK  137  A    between atoms: _352  and  _355
REMARK  138  A    between atoms: _355  and  _356
REMARK  139  A    between atoms: _361  and  _362
REMARK  140  A    between atoms: _364  and  _366
REMARK  141  A    between atoms: _366  and  _367
REMARK  142  A    between atoms: _366  and  _369
REMARK  143  A    between atoms: _369  and  _370
REMARK  144  A    between atoms: _370  and  _371
REMARK  145  A    between atoms: _373  and  _375
REMARK  146  A    between atoms: _375  and  _376
REMARK  147  A    between atoms: _375  and  _378
REMARK  148  A    between atoms: _378  and  _379
REMARK  149  A    between atoms: _379  and  _380
REMARK  150  A    between atoms: _380  and  _381
REMARK  151  A    between atoms: _381  and  _382
REMARK  152  A    between atoms: _386  and  _388
REMARK  153  A    between atoms: _388  and  _389
REMARK  154  A    between atoms: _388  and  _391
REMARK  155  A    between atoms: _391  and  _392
REMARK  156  A    between atoms: _397  and  _398
REMARK  157  A    between atoms: _400  and  _402
REMARK  158  A    between atoms: _402  and  _403
REMARK  159  A    between atoms: _402  and  _405
REMARK  160  A    between atoms: _405  and  _406
REMARK  161  A    between atoms: _408  and  _410
REMARK  162  A    between atoms: _410  and  _411
REMARK  163  A    between atoms: _414  and  _416
REMARK  164  A    between atoms: _416  and  _417
REMARK  165  A    between atoms: _416  and  _419
REMARK  166  A    between atoms: _419  and  _420
REMARK  167  A    between atoms: _423  and  _425
REMARK  168  A    between atoms: _425  and  _426
REMARK  169  A    between atoms: _425  and  _428
REMARK  170  A    between atoms: _428  and  _429
REMARK  171  A    between atoms: _439  and  _441
REMARK  172  A    between atoms: _441  and  _442
REMARK  173  A    between atoms: _441  and  _444
REMARK  174  A    between atoms: _444  and  _445
REMARK  175  A    between atoms: _445  and  _446
REMARK  176  A    between atoms: _451  and  _453
REMARK  177  A    between atoms: _453  and  _454
REMARK  178  A    between atoms: _453  and  _456
REMARK  179  A    between atoms: _459  and  _461
REMARK  180  A    between atoms: _461  and  _462
REMARK  181  A    between atoms: _461  and  _464
REMARK  182  A    between atoms: _464  and  _465
REMARK  183  A    between atoms: _468  and  _470
REMARK  184  A    between atoms: _470  and  _471
REMARK  185  A    between atoms: _474  and  _476
REMARK  186  A    between atoms: _476  and  _477
REMARK  187  A    between atoms: _476  and  _479
REMARK  188  A    between atoms: _482  and  _484
REMARK  189  A    between atoms: _484  and  _485
REMARK  190  A    between atoms: _484  and  _487
REMARK  191  A    between atoms: _487  and  _488
REMARK  192  A    between atoms: _494  and  _496
REMARK  193  A    between atoms: _496  and  _497
REMARK  194  A    between atoms: _496  and  _499
REMARK  195  A    between atoms: _499  and  _500
REMARK  196  A    between atoms: _502  and  _504
REMARK  197  A    between atoms: _504  and  _505
REMARK  198  A    between atoms: _504  and  _507
REMARK  199  A    between atoms: _507  and  _508
REMARK  200  A    between atoms: _513  and  _515
REMARK  201  A    between atoms: _515  and  _516
REMARK  202  A    between atoms: _515  and  _518
REMARK  203  A    between atoms: _518  and  _519
REMARK  204  A    between atoms: _529  and  _531
REMARK  205  A    between atoms: _531  and  _532
REMARK  206  A    between atoms: _531  and  _534
REMARK  207  A    between atoms: _534  and  _535
REMARK  208  A    between atoms: _538  and  _540
REMARK  209  A    between atoms: _540  and  _541
REMARK  210  A    between atoms: _540  and  _543
REMARK  211  A    between atoms: _543  and  _544
REMARK  212  A    between atoms: _549  and  _550
REMARK  213  A    between atoms: _552  and  _554
REMARK  214  A    between atoms: _554  and  _555
REMARK  215  A    between atoms: _554  and  _557
REMARK  216  A    between atoms: _557  and  _558
REMARK  217  A    between atoms: _561  and  _563
REMARK  218  A    between atoms: _563  and  _564
REMARK  219  A    between atoms: _563  and  _566
REMARK  220  A    between atoms: _566  and  _567
REMARK  221  A    between atoms: _567  and  _568
REMARK  222  A    between atoms: _571  and  _573
REMARK  223  A    between atoms: _573  and  _574
REMARK  224  A    between atoms: _573  and  _576
REMARK  225  A    between atoms: _576  and  _577
REMARK  226  A    between atoms: _582  and  _584
REMARK  227  A    between atoms: _584  and  _585
REMARK  228  A    between atoms: _587  and  _589
REMARK  229  A    between atoms: _589  and  _590
REMARK  230  A    between atoms: _589  and  _592
REMARK  231  A    between atoms: _592  and  _593
REMARK  232  A    between atoms: _593  and  _594
REMARK  233  A    between atoms: _596  and  _598
REMARK  234  A    between atoms: _598  and  _599
REMARK  235  A    between atoms: _598  and  _601
REMARK  236  A    between atoms: _601  and  _602
REMARK  237  A    between atoms: _605  and  _607
REMARK  238  A    between atoms: _607  and  _608
REMARK  239  A    between atoms: _607  and  _610
REMARK  240  A    between atoms: _610  and  _611
REMARK  241  A    between atoms: _621  and  _623
REMARK  242  A    between atoms: _623  and  _624
REMARK  243  A    between atoms: _623  and  _626
REMARK  244  A    between atoms: _626  and  _627
REMARK  245  A    between atoms: _629  and  _631
REMARK  246  A    between atoms: _631  and  _632
REMARK  247  A    between atoms: _631  and  _634
REMARK  248  A    between atoms: _634  and  _635
REMARK  249  A    between atoms: _640  and  _642
REMARK  250  A    between atoms: _642  and  _643
REMARK  251  A    between atoms: _642  and  _645
REMARK  252  A    between atoms: _645  and  _646
REMARK  253  A    between atoms: _652  and  _654
REMARK  254  A    between atoms: _654  and  _655
REMARK  255  A    between atoms: _654  and  _657
REMARK  256  A    between atoms: _657  and  _658
REMARK  257  A    between atoms: _658  and  _659
REMARK  258  A    between atoms: _662  and  _664
REMARK  259  A    between atoms: _664  and  _665
REMARK  260  A    between atoms: _664  and  _667
REMARK  261  A    between atoms: _667  and  _668
REMARK  262  A    between atoms: _678  and  _680
REMARK  263  A    between atoms: _680  and  _681
REMARK  264  A    between atoms: _680  and  _683
REMARK  265  A    between atoms: _683  and  _684
REMARK  266  A    between atoms: _687  and  _689
REMARK  267  A    between atoms: _689  and  _690
REMARK  268  A    between atoms: _689  and  _692
REMARK  269  A    between atoms: _692  and  _693
REMARK  270  A    between atoms: _695  and  _697
REMARK  271  A    between atoms: _697  and  _698
REMARK  272  A    between atoms: _697  and  _700
REMARK  273  A    between atoms: _700  and  _701
REMARK  274  A    between atoms: _703  and  _705
REMARK  275  A    between atoms: _705  and  _706
REMARK  276  A    between atoms: _705  and  _708
REMARK  277  A    between atoms: _708  and  _709
REMARK                            x       y       z     vdW  Elec       q    Type
REMARK                         _______ _______ _______ _____ _____    ______ ____
ROOT
ATOM      1  O   HOH     1      -1.395  -7.099  49.511  0.00  0.00    +0.000 OA
ENDROOT
TORSDOF 0
REMARK  Name = ../refined-set-2016/4qll/4qll_pocket.pdb
REMARK  277 active torsions:
REMARK  status: ('A' for Active; 'I' for Inactive)
REMARK    1  A    between atoms: _1  and  _3
REMARK    2  A    between atoms: _3  and  _4
REMARK    3  A    between atoms: _3  and  _6
REMARK    4  A    between atoms: _9  and  _11
REMARK    5  A    between atoms: _11  and  _12
REMARK    6  A    between atoms: _11  and  _14
REMARK    7  A    between atoms: _14  and  _15
REMARK    8  A    between atoms: _18  and  _20
REMARK    9  A    between atoms: _20  and  _21
REMARK   10  A    between atoms: _20  and  _23
REMARK   11  A    between atoms: _23  and  _24
REMARK   12  A    between atoms: _26  and  _28
REMARK   13  A    between atoms: _28  and  _29
REMARK   14  A    between atoms: _28  and  _31
REMARK   15  A    between atoms: _31  and  _32
REMARK   16  A    between atoms: _32  and  _33
REMARK   17  A    between atoms: _38  and  _40
REMARK   18  A    between atoms: _40  and  _41
REMARK   19  A    between atoms: _40  and  _43
REMARK   20  A    between atoms: _43  and  _44
REMARK   21  A    between atoms: _44  and  _45
REMARK   22  A    between atoms: _45  and  _46
REMARK   23  A    between atoms: _55  and  _57
REMARK   24  A    between atoms: _57  and  _58
REMARK   25  A    between atoms: _57  and  _60
REMARK   26  A    between atoms: _60  and  _61
REMARK   27  A    between atoms: _66  and  _68
REMARK   28  A    between atoms: _68  and  _69
REMARK   29  A    between atoms: _68  and  _71
REMARK   30  A    between atoms: _71  and  _72
REMARK   31  A    between atoms: _77  and  _78
REMARK   32  A    between atoms: _80  and  _82
REMARK   33  A    between atoms: _82  and  _83
REMARK   34  A    between atoms: _82  and  _85
REMARK   35  A    between atoms: _85  and  _86
REMARK   36  A    between atoms: _91  and  _93
REMARK   37  A    between atoms: _93  and  _94
REMARK   38  A    between atoms: _93  and  _96
REMARK   39  A    between atoms: _96  and  _97
REMARK   40  A    between atoms: _97  and  _98
REMARK   41  A    between atoms: _103  and  _105
REMARK   42  A    between atoms: _105  and  _106
REMARK   43  A    between atoms: _105  and  _108
REMARK   44  A    between atoms: _108  and  _109
REMARK   45  A    between atoms: _109  and  _110
REMARK   46  A    between atoms: _110  and  _111
REMARK   47  A    between atoms: _120  and  _122
REMARK   48  A    between atoms: _122  and  _123
REMARK   49  A    between atoms: _122  and  _125
REMARK   50  A    between atoms: _125  and  _126
REMARK   51  A    between atoms: _129  and  _131
REMARK   52  A    between atoms: _131  and  _132
REMARK   53  A    between atoms: _131  and  _134
REMARK   54  A    between atoms: _134  and  _135
REMARK   55  A    between atoms: _138  and  _140
REMARK   56  A    between atoms: _140  and  _141
REMARK   57  A    between atoms: _140  and  _143
REMARK   58  A    between atoms: _143  and  _144
REMARK   59  A    between atoms: _147  and  _149
REMARK   60  A    between atoms: _149  and  _150
REMARK   61  A    between atoms: _149  and  _152
REMARK   62  A    between atoms: _152  and  _153
REMARK   63  A    between atoms: _156  and  _158
REMARK   64  A    between atoms: _158  and  _159
REMARK   65  A    between atoms: _162  and  _164
REMARK   66  A    between atoms: _164  and  _165
REMARK   67  A    between atoms: _164  and  _167
REMARK   68  A    between atoms: _167  and  _168
REMARK   69  A    between atoms: _171  and  _173
REMARK   70  A    between atoms: _173  and  _174
REMARK   71  A    between atoms: _173  and  _176
REMARK   72  A    between atoms: _176  and  _177
REMARK   73  A    between atoms: _182  and  _184
REMARK   74  A    between atoms: _184  and  _185
REMARK   75  A    between atoms: _184  and  _187
REMARK   76  A    between atoms: _190  and  _192
REMARK   77  A    between atoms: _192  and  _193
REMARK   78  A    between atoms: _192  and  _195
REMARK   79  A    between atoms: _195  and  _196
REMARK   80  A    between atoms: _199  and  _201
REMARK   81  A    between atoms: _201  and  _202
REMARK   82  A    between atoms: _201  and  _204
REMARK   83  A    between atoms: _204  and  _205
REMARK   84  A    between atoms: _208  and  _210
REMARK   85  A    between atoms: _210  and  _211
REMARK   86  A    between atoms: _210  and  _213
REMARK   87  A    between atoms: _213  and  _214
REMARK   88  A    between atoms: _220  and  _222
REMARK   89  A    between atoms: _222  and  _223
REMARK   90  A    between atoms: _222  and  _225
REMARK   91  A    between atoms: _225  and  _226
REMARK   92  A    between atoms: _231  and  _233
REMARK   93  A    between atoms: _233  and  _234
REMARK   94  A    between atoms: _233  and  _236
REMARK   95  A    between atoms: _236  and  _237
REMARK   96  A    between atoms: _247  and  _249
REMARK   97  A    between atoms: _249  and  _250
REMARK   98  A    between atoms: _249  and  _252
REMARK   99  A    between atoms: _252  and  _253
REMARK  100  A    between atoms: _258  and  _259
REMARK  101  A    between atoms: _261  and  _263
REMARK  102  A    between atoms: _263  and  _264
REMARK  103  A    between atoms: _267  and  _269
REMARK  104  A    between atoms: _269  and  _270
REMARK  105  A    between atoms: _269  and  _272
REMARK  106  A    between atoms: _272  and  _273
REMARK  107  A    between atoms: _279  and  _281
REMARK  108  A    between atoms: _281  and  _282
REMARK  109  A    between atoms: _281  and  _284
REMARK  110  A    between atoms: _284  and  _285
REMARK  111  A    between atoms: _290  and  _292
REMARK  112  A    between atoms: _292  and  _293
REMARK  113  A    between atoms: _292  and  _295
REMARK  114  A    between atoms: _295  and  _296
REMARK  115  A    between atoms: _301  and  _303
REMARK  116  A    between atoms: _303  and  _304
REMARK  117  A    between atoms: _303  and  _306
REMARK  118  A    between atoms: _306  and  _307
REMARK  119  A    between atoms: _307  and  _308
REMARK  120  A    between atoms: _313  and  _315
REMARK  121  A    between atoms: _315  and  _316
REMARK  122  A    between atoms: _315  and  _318
REMARK  123  A    between atoms: _318  and  _319
REMARK  124  A    between atoms: _324  and  _325
REMARK  125  A    between atoms: _327  and  _329
REMARK  126  A    between atoms: _329  and  _330
REMARK  127  A    between atoms: _329  and  _332
REMARK  128  A    between atoms: _332  and  _333
REMARK  129  A    between atoms: _336  and  _338
REMARK  130  A    between atoms: _338  and  _339
REMARK  131  A    between atoms: _342  and  _344
REMARK  132  A    between atoms: _344  and  _345
REMARK  133  A    between atoms: _344  and  _347
REMARK  134  A    between atoms: _347  and  _348
REMARK  135  A    between atoms: _350  and  _352
REMARK  136  A    between atoms: _352  and  _353
REMARK  137  A    between atoms: _352  and  _355
REMARK  138  A    between atoms: _355  and  _356
REMARK  139  A    between atoms: _361  and  _362
REMARK  140  A    between atoms: _364  and  _366
REMARK  141  A    between atoms: _366  and  _367
REMARK  142  A    between atoms: _366  and  _369
REMARK  143  A    between atoms: _369  and  _370
REMARK  144  A    between atoms: _370  and  _371
REMARK  145  A    between atoms: _373  and  _375
REMARK  146  A    between atoms: _375  and  _376
REMARK  147  A    between atoms: _375  and  _378
REMARK  148  A    between atoms: _378  and  _379
REMARK  149  A    between atoms: _379  and  _380
REMARK  150  A    between atoms: _380  and  _381
REMARK  151  A    between atoms: _381  and  _382
REMARK  152  A    between atoms: _386  and  _388
REMARK  153  A    between atoms: _388  and  _389
REMARK  154  A    between atoms: _388  and  _391
REMARK  155  A    between atoms: _391  and  _392
REMARK  156  A    between atoms: _397  and  _398
REMARK  157  A    between atoms: _400  and  _402
REMARK  158  A    between atoms: _402  and  _403
REMARK  159  A    between atoms: _402  and  _405
REMARK  160  A    between atoms: _405  and  _406
REMARK  161  A    between atoms: _408  and  _410
REMARK  162  A    between atoms: _410  and  _411
REMARK  163  A    between atoms: _414  and  _416
REMARK  164  A    between atoms: _416  and  _417
REMARK  165  A    between atoms: _416  and  _419
REMARK  166  A    between atoms: _419  and  _420
REMARK  167  A    between atoms: _423  and  _425
REMARK  168  A    between atoms: _425  and  _426
REMARK  169  A    between atoms: _425  and  _428
REMARK  170  A    between atoms: _428  and  _429
REMARK  171  A    between atoms: _439  and  _441
REMARK  172  A    between atoms: _441  and  _442
REMARK  173  A    between atoms: _441  and  _444
REMARK  174  A    between atoms: _444  and  _445
REMARK  175  A    between atoms: _445  and  _446
REMARK  176  A    between atoms: _451  and  _453
REMARK  177  A    between atoms: _453  and  _454
REMARK  178  A    between atoms: _453  and  _456
REMARK  179  A    between atoms: _459  and  _461
REMARK  180  A    between atoms: _461  and  _462
REMARK  181  A    between atoms: _461  and  _464
REMARK  182  A    between atoms: _464  and  _465
REMARK  183  A    between atoms: _468  and  _470
REMARK  184  A    between atoms: _470  and  _471
REMARK  185  A    between atoms: _474  and  _476
REMARK  186  A    between atoms: _476  and  _477
REMARK  187  A    between atoms: _476  and  _479
REMARK  188  A    between atoms: _482  and  _484
REMARK  189  A    between atoms: _484  and  _485
REMARK  190  A    between atoms: _484  and  _487
REMARK  191  A    between atoms: _487  and  _488
REMARK  192  A    between atoms: _494  and  _496
REMARK  193  A    between atoms: _496  and  _497
REMARK  194  A    between atoms: _496  and  _499
REMARK  195  A    between atoms: _499  and  _500
REMARK  196  A    between atoms: _502  and  _504
REMARK  197  A    between atoms: _504  and  _505
REMARK  198  A    between atoms: _504  and  _507
REMARK  199  A    between atoms: _507  and  _508
REMARK  200  A    between atoms: _513  and  _515
REMARK  201  A    between atoms: _515  and  _516
REMARK  202  A    between atoms: _515  and  _518
REMARK  203  A    between atoms: _518  and  _519
REMARK  204  A    between atoms: _529  and  _531
REMARK  205  A    between atoms: _531  and  _532
REMARK  206  A    between atoms: _531  and  _534
REMARK  207  A    between atoms: _534  and  _535
REMARK  208  A    between atoms: _538  and  _540
REMARK  209  A    between atoms: _540  and  _541
REMARK  210  A    between atoms: _540  and  _543
REMARK  211  A    between atoms: _543  and  _544
REMARK  212  A    between atoms: _549  and  _550
REMARK  213  A    between atoms: _552  and  _554
REMARK  214  A    between atoms: _554  and  _555
REMARK  215  A    between atoms: _554  and  _557
REMARK  216  A    between atoms: _557  and  _558
REMARK  217  A    between atoms: _561  and  _563
REMARK  218  A    between atoms: _563  and  _564
REMARK  219  A    between atoms: _563  and  _566
REMARK  220  A    between atoms: _566  and  _567
REMARK  221  A    between atoms: _567  and  _568
REMARK  222  A    between atoms: _571  and  _573
REMARK  223  A    between atoms: _573  and  _574
REMARK  224  A    between atoms: _573  and  _576
REMARK  225  A    between atoms: _576  and  _577
REMARK  226  A    between atoms: _582  and  _584
REMARK  227  A    between atoms: _584  and  _585
REMARK  228  A    between atoms: _587  and  _589
REMARK  229  A    between atoms: _589  and  _590
REMARK  230  A    between atoms: _589  and  _592
REMARK  231  A    between atoms: _592  and  _593
REMARK  232  A    between atoms: _593  and  _594
REMARK  233  A    between atoms: _596  and  _598
REMARK  234  A    between atoms: _598  and  _599
REMARK  235  A    between atoms: _598  and  _601
REMARK  236  A    between atoms: _601  and  _602
REMARK  237  A    between atoms: _605  and  _607
REMARK  238  A    between atoms: _607  and  _608
REMARK  239  A    between atoms: _607  and  _610
REMARK  240  A    between atoms: _610  and  _611
REMARK  241  A    between atoms: _621  and  _623
REMARK  242  A    between atoms: _623  and  _624
REMARK  243  A    between atoms: _623  and  _626
REMARK  244  A    between atoms: _626  and  _627
REMARK  245  A    between atoms: _629  and  _631
REMARK  246  A    between atoms: _631  and  _632
REMARK  247  A    between atoms: _631  and  _634
REMARK  248  A    between atoms: _634  and  _635
REMARK  249  A    between atoms: _640  and  _642
REMARK  250  A    between atoms: _642  and  _643
REMARK  251  A    between atoms: _642  and  _645
REMARK  252  A    between atoms: _645  and  _646
REMARK  253  A    between atoms: _652  and  _654
REMARK  254  A    between atoms: _654  and  _655
REMARK  255  A    between atoms: _654  and  _657
REMARK  256  A    between atoms: _657  and  _658
REMARK  257  A    between atoms: _658  and  _659
REMARK  258  A    between atoms: _662  and  _664
REMARK  259  A    between atoms: _664  and  _665
REMARK  260  A    between atoms: _664  and  _667
REMARK  261  A    between atoms: _667  and  _668
REMARK  262  A    between atoms: _678  and  _680
REMARK  263  A    between atoms: _680  and  _681
REMARK  264  A    between atoms: _680  and  _683
REMARK  265  A    between atoms: _683  and  _684
REMARK  266  A    between atoms: _687  and  _689
REMARK  267  A    between atoms: _689  and  _690
REMARK  268  A    between atoms: _689  and  _692
REMARK  269  A    between atoms: _692  and  _693
REMARK  270  A    between atoms: _695  and  _697
REMARK  271  A    between atoms: _697  and  _698
REMARK  272  A    between atoms: _697  and  _700
REMARK  273  A    between atoms: _700  and  _701
REMARK  274  A    between atoms: _703  and  _705
REMARK  275  A    between atoms: _705  and  _706
REMARK  276  A    between atoms: _705  and  _708
REMARK  277  A    between atoms: _708  and  _709
REMARK                            x       y       z     vdW  Elec       q    Type
REMARK                         _______ _______ _______ _____ _____    ______ ____
ROOT
ATOM      1  O   HOH     1      -0.331  -4.863  49.677  0.00  0.00    +0.000 OA
ENDROOT
TORSDOF 0
REMARK  Name = ../refined-set-2016/4qll/4qll_pocket.pdb
REMARK  277 active torsions:
REMARK  status: ('A' for Active; 'I' for Inactive)
REMARK    1  A    between atoms: _1  and  _3
REMARK    2  A    between atoms: _3  and  _4
REMARK    3  A    between atoms: _3  and  _6
REMARK    4  A    between atoms: _9  and  _11
REMARK    5  A    between atoms: _11  and  _12
REMARK    6  A    between atoms: _11  and  _14
REMARK    7  A    between atoms: _14  and  _15
REMARK    8  A    between atoms: _18  and  _20
REMARK    9  A    between atoms: _20  and  _21
REMARK   10  A    between atoms: _20  and  _23
REMARK   11  A    between atoms: _23  and  _24
REMARK   12  A    between atoms: _26  and  _28
REMARK   13  A    between atoms: _28  and  _29
REMARK   14  A    between atoms: _28  and  _31
REMARK   15  A    between atoms: _31  and  _32
REMARK   16  A    between atoms: _32  and  _33
REMARK   17  A    between atoms: _38  and  _40
REMARK   18  A    between atoms: _40  and  _41
REMARK   19  A    between atoms: _40  and  _43
REMARK   20  A    between atoms: _43  and  _44
REMARK   21  A    between atoms: _44  and  _45
REMARK   22  A    between atoms: _45  and  _46
REMARK   23  A    between atoms: _55  and  _57
REMARK   24  A    between atoms: _57  and  _58
REMARK   25  A    between atoms: _57  and  _60
REMARK   26  A    between atoms: _60  and  _61
REMARK   27  A    between atoms: _66  and  _68
REMARK   28  A    between atoms: _68  and  _69
REMARK   29  A    between atoms: _68  and  _71
REMARK   30  A    between atoms: _71  and  _72
REMARK   31  A    between atoms: _77  and  _78
REMARK   32  A    between atoms: _80  and  _82
REMARK   33  A    between atoms: _82  and  _83
REMARK   34  A    between atoms: _82  and  _85
REMARK   35  A    between atoms: _85  and  _86
REMARK   36  A    between atoms: _91  and  _93
REMARK   37  A    between atoms: _93  and  _94
REMARK   38  A    between atoms: _93  and  _96
REMARK   39  A    between atoms: _96  and  _97
REMARK   40  A    between atoms: _97  and  _98
REMARK   41  A    between atoms: _103  and  _105
REMARK   42  A    between atoms: _105  and  _106
REMARK   43  A    between atoms: _105  and  _108
REMARK   44  A    between atoms: _108  and  _109
REMARK   45  A    between atoms: _109  and  _110
REMARK   46  A    between atoms: _110  and  _111
REMARK   47  A    between atoms: _120  and  _122
REMARK   48  A    between atoms: _122  and  _123
REMARK   49  A    between atoms: _122  and  _125
REMARK   50  A    between atoms: _125  and  _126
REMARK   51  A    between atoms: _129  and  _131
REMARK   52  A    between atoms: _131  and  _132
REMARK   53  A    between atoms: _131  and  _134
REMARK   54  A    between atoms: _134  and  _135
REMARK   55  A    between atoms: _138  and  _140
REMARK   56  A    between atoms: _140  and  _141
REMARK   57  A    between atoms: _140  and  _143
REMARK   58  A    between atoms: _143  and  _144
REMARK   59  A    between atoms: _147  and  _149
REMARK   60  A    between atoms: _149  and  _150
REMARK   61  A    between atoms: _149  and  _152
REMARK   62  A    between atoms: _152  and  _153
REMARK   63  A    between atoms: _156  and  _158
REMARK   64  A    between atoms: _158  and  _159
REMARK   65  A    between atoms: _162  and  _164
REMARK   66  A    between atoms: _164  and  _165
REMARK   67  A    between atoms: _164  and  _167
REMARK   68  A    between atoms: _167  and  _168
REMARK   69  A    between atoms: _171  and  _173
REMARK   70  A    between atoms: _173  and  _174
REMARK   71  A    between atoms: _173  and  _176
REMARK   72  A    between atoms: _176  and  _177
REMARK   73  A    between atoms: _182  and  _184
REMARK   74  A    between atoms: _184  and  _185
REMARK   75  A    between atoms: _184  and  _187
REMARK   76  A    between atoms: _190  and  _192
REMARK   77  A    between atoms: _192  and  _193
REMARK   78  A    between atoms: _192  and  _195
REMARK   79  A    between atoms: _195  and  _196
REMARK   80  A    between atoms: _199  and  _201
REMARK   81  A    between atoms: _201  and  _202
REMARK   82  A    between atoms: _201  and  _204
REMARK   83  A    between atoms: _204  and  _205
REMARK   84  A    between atoms: _208  and  _210
REMARK   85  A    between atoms: _210  and  _211
REMARK   86  A    between atoms: _210  and  _213
REMARK   87  A    between atoms: _213  and  _214
REMARK   88  A    between atoms: _220  and  _222
REMARK   89  A    between atoms: _222  and  _223
REMARK   90  A    between atoms: _222  and  _225
REMARK   91  A    between atoms: _225  and  _226
REMARK   92  A    between atoms: _231  and  _233
REMARK   93  A    between atoms: _233  and  _234
REMARK   94  A    between atoms: _233  and  _236
REMARK   95  A    between atoms: _236  and  _237
REMARK   96  A    between atoms: _247  and  _249
REMARK   97  A    between atoms: _249  and  _250
REMARK   98  A    between atoms: _249  and  _252
REMARK   99  A    between atoms: _252  and  _253
REMARK  100  A    between atoms: _258  and  _259
REMARK  101  A    between atoms: _261  and  _263
REMARK  102  A    between atoms: _263  and  _264
REMARK  103  A    between atoms: _267  and  _269
REMARK  104  A    between atoms: _269  and  _270
REMARK  105  A    between atoms: _269  and  _272
REMARK  106  A    between atoms: _272  and  _273
REMARK  107  A    between atoms: _279  and  _281
REMARK  108  A    between atoms: _281  and  _282
REMARK  109  A    between atoms: _281  and  _284
REMARK  110  A    between atoms: _284  and  _285
REMARK  111  A    between atoms: _290  and  _292
REMARK  112  A    between atoms: _292  and  _293
REMARK  113  A    between atoms: _292  and  _295
REMARK  114  A    between atoms: _295  and  _296
REMARK  115  A    between atoms: _301  and  _303
REMARK  116  A    between atoms: _303  and  _304
REMARK  117  A    between atoms: _303  and  _306
REMARK  118  A    between atoms: _306  and  _307
REMARK  119  A    between atoms: _307  and  _308
REMARK  120  A    between atoms: _313  and  _315
REMARK  121  A    between atoms: _315  and  _316
REMARK  122  A    between atoms: _315  and  _318
REMARK  123  A    between atoms: _318  and  _319
REMARK  124  A    between atoms: _324  and  _325
REMARK  125  A    between atoms: _327  and  _329
REMARK  126  A    between atoms: _329  and  _330
REMARK  127  A    between atoms: _329  and  _332
REMARK  128  A    between atoms: _332  and  _333
REMARK  129  A    between atoms: _336  and  _338
REMARK  130  A    between atoms: _338  and  _339
REMARK  131  A    between atoms: _342  and  _344
REMARK  132  A    between atoms: _344  and  _345
REMARK  133  A    between atoms: _344  and  _347
REMARK  134  A    between atoms: _347  and  _348
REMARK  135  A    between atoms: _350  and  _352
REMARK  136  A    between atoms: _352  and  _353
REMARK  137  A    between atoms: _352  and  _355
REMARK  138  A    between atoms: _355  and  _356
REMARK  139  A    between atoms: _361  and  _362
REMARK  140  A    between atoms: _364  and  _366
REMARK  141  A    between atoms: _366  and  _367
REMARK  142  A    between atoms: _366  and  _369
REMARK  143  A    between atoms: _369  and  _370
REMARK  144  A    between atoms: _370  and  _371
REMARK  145  A    between atoms: _373  and  _375
REMARK  146  A    between atoms: _375  and  _376
REMARK  147  A    between atoms: _375  and  _378
REMARK  148  A    between atoms: _378  and  _379
REMARK  149  A    between atoms: _379  and  _380
REMARK  150  A    between atoms: _380  and  _381
REMARK  151  A    between atoms: _381  and  _382
REMARK  152  A    between atoms: _386  and  _388
REMARK  153  A    between atoms: _388  and  _389
REMARK  154  A    between atoms: _388  and  _391
REMARK  155  A    between atoms: _391  and  _392
REMARK  156  A    between atoms: _397  and  _398
REMARK  157  A    between atoms: _400  and  _402
REMARK  158  A    between atoms: _402  and  _403
REMARK  159  A    between atoms: _402  and  _405
REMARK  160  A    between atoms: _405  and  _406
REMARK  161  A    between atoms: _408  and  _410
REMARK  162  A    between atoms: _410  and  _411
REMARK  163  A    between atoms: _414  and  _416
REMARK  164  A    between atoms: _416  and  _417
REMARK  165  A    between atoms: _416  and  _419
REMARK  166  A    between atoms: _419  and  _420
REMARK  167  A    between atoms: _423  and  _425
REMARK  168  A    between atoms: _425  and  _426
REMARK  169  A    between atoms: _425  and  _428
REMARK  170  A    between atoms: _428  and  _429
REMARK  171  A    between atoms: _439  and  _441
REMARK  172  A    between atoms: _441  and  _442
REMARK  173  A    between atoms: _441  and  _444
REMARK  174  A    between atoms: _444  and  _445
REMARK  175  A    between atoms: _445  and  _446
REMARK  176  A    between atoms: _451  and  _453
REMARK  177  A    between atoms: _453  and  _454
REMARK  178  A    between atoms: _453  and  _456
REMARK  179  A    between atoms: _459  and  _461
REMARK  180  A    between atoms: _461  and  _462
REMARK  181  A    between atoms: _461  and  _464
REMARK  182  A    between atoms: _464  and  _465
REMARK  183  A    between atoms: _468  and  _470
REMARK  184  A    between atoms: _470  and  _471
REMARK  185  A    between atoms: _474  and  _476
REMARK  186  A    between atoms: _476  and  _477
REMARK  187  A    between atoms: _476  and  _479
REMARK  188  A    between atoms: _482  and  _484
REMARK  189  A    between atoms: _484  and  _485
REMARK  190  A    between atoms: _484  and  _487
REMARK  191  A    between atoms: _487  and  _488
REMARK  192  A    between atoms: _494  and  _496
REMARK  193  A    between atoms: _496  and  _497
REMARK  194  A    between atoms: _496  and  _499
REMARK  195  A    between atoms: _499  and  _500
REMARK  196  A    between atoms: _502  and  _504
REMARK  197  A    between atoms: _504  and  _505
REMARK  198  A    between atoms: _504  and  _507
REMARK  199  A    between atoms: _507  and  _508
REMARK  200  A    between atoms: _513  and  _515
REMARK  201  A    between atoms: _515  and  _516
REMARK  202  A    between atoms: _515  and  _518
REMARK  203  A    between atoms: _518  and  _519
REMARK  204  A    between atoms: _529  and  _531
REMARK  205  A    between atoms: _531  and  _532
REMARK  206  A    between atoms: _531  and  _534
REMARK  207  A    between atoms: _534  and  _535
REMARK  208  A    between atoms: _538  and  _540
REMARK  209  A    between atoms: _540  and  _541
REMARK  210  A    between atoms: _540  and  _543
REMARK  211  A    between atoms: _543  and  _544
REMARK  212  A    between atoms: _549  and  _550
REMARK  213  A    between atoms: _552  and  _554
REMARK  214  A    between atoms: _554  and  _555
REMARK  215  A    between atoms: _554  and  _557
REMARK  216  A    between atoms: _557  and  _558
REMARK  217  A    between atoms: _561  and  _563
REMARK  218  A    between atoms: _563  and  _564
REMARK  219  A    between atoms: _563  and  _566
REMARK  220  A    between atoms: _566  and  _567
REMARK  221  A    between atoms: _567  and  _568
REMARK  222  A    between atoms: _571  and  _573
REMARK  223  A    between atoms: _573  and  _574
REMARK  224  A    between atoms: _573  and  _576
REMARK  225  A    between atoms: _576  and  _577
REMARK  226  A    between atoms: _582  and  _584
REMARK  227  A    between atoms: _584  and  _585
REMARK  228  A    between atoms: _587  and  _589
REMARK  229  A    between atoms: _589  and  _590
REMARK  230  A    between atoms: _589  and  _592
REMARK  231  A    between atoms: _592  and  _593
REMARK  232  A    between atoms: _593  and  _594
REMARK  233  A    between atoms: _596  and  _598
REMARK  234  A    between atoms: _598  and  _599
REMARK  235  A    between atoms: _598  and  _601
REMARK  236  A    between atoms: _601  and  _602
REMARK  237  A    between atoms: _605  and  _607
REMARK  238  A    between atoms: _607  and  _608
REMARK  239  A    between atoms: _607  and  _610
REMARK  240  A    between atoms: _610  and  _611
REMARK  241  A    between atoms: _621  and  _623
REMARK  242  A    between atoms: _623  and  _624
REMARK  243  A    between atoms: _623  and  _626
REMARK  244  A    between atoms: _626  and  _627
REMARK  245  A    between atoms: _629  and  _631
REMARK  246  A    between atoms: _631  and  _632
REMARK  247  A    between atoms: _631  and  _634
REMARK  248  A    between atoms: _634  and  _635
REMARK  249  A    between atoms: _640  and  _642
REMARK  250  A    between atoms: _642  and  _643
REMARK  251  A    between atoms: _642  and  _645
REMARK  252  A    between atoms: _645  and  _646
REMARK  253  A    between atoms: _652  and  _654
REMARK  254  A    between atoms: _654  and  _655
REMARK  255  A    between atoms: _654  and  _657
REMARK  256  A    between atoms: _657  and  _658
REMARK  257  A    between atoms: _658  and  _659
REMARK  258  A    between atoms: _662  and  _664
REMARK  259  A    between atoms: _664  and  _665
REMARK  260  A    between atoms: _664  and  _667
REMARK  261  A    between atoms: _667  and  _668
REMARK  262  A    between atoms: _678  and  _680
REMARK  263  A    between atoms: _680  and  _681
REMARK  264  A    between atoms: _680  and  _683
REMARK  265  A    between atoms: _683  and  _684
REMARK  266  A    between atoms: _687  and  _689
REMARK  267  A    between atoms: _689  and  _690
REMARK  268  A    between atoms: _689  and  _692
REMARK  269  A    between atoms: _692  and  _693
REMARK  270  A    between atoms: _695  and  _697
REMARK  271  A    between atoms: _697  and  _698
REMARK  272  A    between atoms: _697  and  _700
REMARK  273  A    between atoms: _700  and  _701
REMARK  274  A    between atoms: _703  and  _705
REMARK  275  A    between atoms: _705  and  _706
REMARK  276  A    between atoms: _705  and  _708
REMARK  277  A    between atoms: _708  and  _709
REMARK                            x       y       z     vdW  Elec       q    Type
REMARK                         _______ _______ _______ _____ _____    ______ ____
ROOT
ATOM      1  O   HOH     1      -3.536   4.484  48.672  0.00  0.00    +0.000 OA
ENDROOT
TORSDOF 0
REMARK  Name = ../refined-set-2016/4qll/4qll_pocket.pdb
REMARK  277 active torsions:
REMARK  status: ('A' for Active; 'I' for Inactive)
REMARK    1  A    between atoms: _1  and  _3
REMARK    2  A    between atoms: _3  and  _4
REMARK    3  A    between atoms: _3  and  _6
REMARK    4  A    between atoms: _9  and  _11
REMARK    5  A    between atoms: _11  and  _12
REMARK    6  A    between atoms: _11  and  _14
REMARK    7  A    between atoms: _14  and  _15
REMARK    8  A    between atoms: _18  and  _20
REMARK    9  A    between atoms: _20  and  _21
REMARK   10  A    between atoms: _20  and  _23
REMARK   11  A    between atoms: _23  and  _24
REMARK   12  A    between atoms: _26  and  _28
REMARK   13  A    between atoms: _28  and  _29
REMARK   14  A    between atoms: _28  and  _31
REMARK   15  A    between atoms: _31  and  _32
REMARK   16  A    between atoms: _32  and  _33
REMARK   17  A    between atoms: _38  and  _40
REMARK   18  A    between atoms: _40  and  _41
REMARK   19  A    between atoms: _40  and  _43
REMARK   20  A    between atoms: _43  and  _44
REMARK   21  A    between atoms: _44  and  _45
REMARK   22  A    between atoms: _45  and  _46
REMARK   23  A    between atoms: _55  and  _57
REMARK   24  A    between atoms: _57  and  _58
REMARK   25  A    between atoms: _57  and  _60
REMARK   26  A    between atoms: _60  and  _61
REMARK   27  A    between atoms: _66  and  _68
REMARK   28  A    between atoms: _68  and  _69
REMARK   29  A    between atoms: _68  and  _71
REMARK   30  A    between atoms: _71  and  _72
REMARK   31  A    between atoms: _77  and  _78
REMARK   32  A    between atoms: _80  and  _82
REMARK   33  A    between atoms: _82  and  _83
REMARK   34  A    between atoms: _82  and  _85
REMARK   35  A    between atoms: _85  and  _86
REMARK   36  A    between atoms: _91  and  _93
REMARK   37  A    between atoms: _93  and  _94
REMARK   38  A    between atoms: _93  and  _96
REMARK   39  A    between atoms: _96  and  _97
REMARK   40  A    between atoms: _97  and  _98
REMARK   41  A    between atoms: _103  and  _105
REMARK   42  A    between atoms: _105  and  _106
REMARK   43  A    between atoms: _105  and  _108
REMARK   44  A    between atoms: _108  and  _109
REMARK   45  A    between atoms: _109  and  _110
REMARK   46  A    between atoms: _110  and  _111
REMARK   47  A    between atoms: _120  and  _122
REMARK   48  A    between atoms: _122  and  _123
REMARK   49  A    between atoms: _122  and  _125
REMARK   50  A    between atoms: _125  and  _126
REMARK   51  A    between atoms: _129  and  _131
REMARK   52  A    between atoms: _131  and  _132
REMARK   53  A    between atoms: _131  and  _134
REMARK   54  A    between atoms: _134  and  _135
REMARK   55  A    between atoms: _138  and  _140
REMARK   56  A    between atoms: _140  and  _141
REMARK   57  A    between atoms: _140  and  _143
REMARK   58  A    between atoms: _143  and  _144
REMARK   59  A    between atoms: _147  and  _149
REMARK   60  A    between atoms: _149  and  _150
REMARK   61  A    between atoms: _149  and  _152
REMARK   62  A    between atoms: _152  and  _153
REMARK   63  A    between atoms: _156  and  _158
REMARK   64  A    between atoms: _158  and  _159
REMARK   65  A    between atoms: _162  and  _164
REMARK   66  A    between atoms: _164  and  _165
REMARK   67  A    between atoms: _164  and  _167
REMARK   68  A    between atoms: _167  and  _168
REMARK   69  A    between atoms: _171  and  _173
REMARK   70  A    between atoms: _173  and  _174
REMARK   71  A    between atoms: _173  and  _176
REMARK   72  A    between atoms: _176  and  _177
REMARK   73  A    between atoms: _182  and  _184
REMARK   74  A    between atoms: _184  and  _185
REMARK   75  A    between atoms: _184  and  _187
REMARK   76  A    between atoms: _190  and  _192
REMARK   77  A    between atoms: _192  and  _193
REMARK   78  A    between atoms: _192  and  _195
REMARK   79  A    between atoms: _195  and  _196
REMARK   80  A    between atoms: _199  and  _201
REMARK   81  A    between atoms: _201  and  _202
REMARK   82  A    between atoms: _201  and  _204
REMARK   83  A    between atoms: _204  and  _205
REMARK   84  A    between atoms: _208  and  _210
REMARK   85  A    between atoms: _210  and  _211
REMARK   86  A    between atoms: _210  and  _213
REMARK   87  A    between atoms: _213  and  _214
REMARK   88  A    between atoms: _220  and  _222
REMARK   89  A    between atoms: _222  and  _223
REMARK   90  A    between atoms: _222  and  _225
REMARK   91  A    between atoms: _225  and  _226
REMARK   92  A    between atoms: _231  and  _233
REMARK   93  A    between atoms: _233  and  _234
REMARK   94  A    between atoms: _233  and  _236
REMARK   95  A    between atoms: _236  and  _237
REMARK   96  A    between atoms: _247  and  _249
REMARK   97  A    between atoms: _249  and  _250
REMARK   98  A    between atoms: _249  and  _252
REMARK   99  A    between atoms: _252  and  _253
REMARK  100  A    between atoms: _258  and  _259
REMARK  101  A    between atoms: _261  and  _263
REMARK  102  A    between atoms: _263  and  _264
REMARK  103  A    between atoms: _267  and  _269
REMARK  104  A    between atoms: _269  and  _270
REMARK  105  A    between atoms: _269  and  _272
REMARK  106  A    between atoms: _272  and  _273
REMARK  107  A    between atoms: _279  and  _281
REMARK  108  A    between atoms: _281  and  _282
REMARK  109  A    between atoms: _281  and  _284
REMARK  110  A    between atoms: _284  and  _285
REMARK  111  A    between atoms: _290  and  _292
REMARK  112  A    between atoms: _292  and  _293
REMARK  113  A    between atoms: _292  and  _295
REMARK  114  A    between atoms: _295  and  _296
REMARK  115  A    between atoms: _301  and  _303
REMARK  116  A    between atoms: _303  and  _304
REMARK  117  A    between atoms: _303  and  _306
REMARK  118  A    between atoms: _306  and  _307
REMARK  119  A    between atoms: _307  and  _308
REMARK  120  A    between atoms: _313  and  _315
REMARK  121  A    between atoms: _315  and  _316
REMARK  122  A    between atoms: _315  and  _318
REMARK  123  A    between atoms: _318  and  _319
REMARK  124  A    between atoms: _324  and  _325
REMARK  125  A    between atoms: _327  and  _329
REMARK  126  A    between atoms: _329  and  _330
REMARK  127  A    between atoms: _329  and  _332
REMARK  128  A    between atoms: _332  and  _333
REMARK  129  A    between atoms: _336  and  _338
REMARK  130  A    between atoms: _338  and  _339
REMARK  131  A    between atoms: _342  and  _344
REMARK  132  A    between atoms: _344  and  _345
REMARK  133  A    between atoms: _344  and  _347
REMARK  134  A    between atoms: _347  and  _348
REMARK  135  A    between atoms: _350  and  _352
REMARK  136  A    between atoms: _352  and  _353
REMARK  137  A    between atoms: _352  and  _355
REMARK  138  A    between atoms: _355  and  _356
REMARK  139  A    between atoms: _361  and  _362
REMARK  140  A    between atoms: _364  and  _366
REMARK  141  A    between atoms: _366  and  _367
REMARK  142  A    between atoms: _366  and  _369
REMARK  143  A    between atoms: _369  and  _370
REMARK  144  A    between atoms: _370  and  _371
REMARK  145  A    between atoms: _373  and  _375
REMARK  146  A    between atoms: _375  and  _376
REMARK  147  A    between atoms: _375  and  _378
REMARK  148  A    between atoms: _378  and  _379
REMARK  149  A    between atoms: _379  and  _380
REMARK  150  A    between atoms: _380  and  _381
REMARK  151  A    between atoms: _381  and  _382
REMARK  152  A    between atoms: _386  and  _388
REMARK  153  A    between atoms: _388  and  _389
REMARK  154  A    between atoms: _388  and  _391
REMARK  155  A    between atoms: _391  and  _392
REMARK  156  A    between atoms: _397  and  _398
REMARK  157  A    between atoms: _400  and  _402
REMARK  158  A    between atoms: _402  and  _403
REMARK  159  A    between atoms: _402  and  _405
REMARK  160  A    between atoms: _405  and  _406
REMARK  161  A    between atoms: _408  and  _410
REMARK  162  A    between atoms: _410  and  _411
REMARK  163  A    between atoms: _414  and  _416
REMARK  164  A    between atoms: _416  and  _417
REMARK  165  A    between atoms: _416  and  _419
REMARK  166  A    between atoms: _419  and  _420
REMARK  167  A    between atoms: _423  and  _425
REMARK  168  A    between atoms: _425  and  _426
REMARK  169  A    between atoms: _425  and  _428
REMARK  170  A    between atoms: _428  and  _429
REMARK  171  A    between atoms: _439  and  _441
REMARK  172  A    between atoms: _441  and  _442
REMARK  173  A    between atoms: _441  and  _444
REMARK  174  A    between atoms: _444  and  _445
REMARK  175  A    between atoms: _445  and  _446
REMARK  176  A    between atoms: _451  and  _453
REMARK  177  A    between atoms: _453  and  _454
REMARK  178  A    between atoms: _453  and  _456
REMARK  179  A    between atoms: _459  and  _461
REMARK  180  A    between atoms: _461  and  _462
REMARK  181  A    between atoms: _461  and  _464
REMARK  182  A    between atoms: _464  and  _465
REMARK  183  A    between atoms: _468  and  _470
REMARK  184  A    between atoms: _470  and  _471
REMARK  185  A    between atoms: _474  and  _476
REMARK  186  A    between atoms: _476  and  _477
REMARK  187  A    between atoms: _476  and  _479
REMARK  188  A    between atoms: _482  and  _484
REMARK  189  A    between atoms: _484  and  _485
REMARK  190  A    between atoms: _484  and  _487
REMARK  191  A    between atoms: _487  and  _488
REMARK  192  A    between atoms: _494  and  _496
REMARK  193  A    between atoms: _496  and  _497
REMARK  194  A    between atoms: _496  and  _499
REMARK  195  A    between atoms: _499  and  _500
REMARK  196  A    between atoms: _502  and  _504
REMARK  197  A    between atoms: _504  and  _505
REMARK  198  A    between atoms: _504  and  _507
REMARK  199  A    between atoms: _507  and  _508
REMARK  200  A    between atoms: _513  and  _515
REMARK  201  A    between atoms: _515  and  _516
REMARK  202  A    between atoms: _515  and  _518
REMARK  203  A    between atoms: _518  and  _519
REMARK  204  A    between atoms: _529  and  _531
REMARK  205  A    between atoms: _531  and  _532
REMARK  206  A    between atoms: _531  and  _534
REMARK  207  A    between atoms: _534  and  _535
REMARK  208  A    between atoms: _538  and  _540
REMARK  209  A    between atoms: _540  and  _541
REMARK  210  A    between atoms: _540  and  _543
REMARK  211  A    between atoms: _543  and  _544
REMARK  212  A    between atoms: _549  and  _550
REMARK  213  A    between atoms: _552  and  _554
REMARK  214  A    between atoms: _554  and  _555
REMARK  215  A    between atoms: _554  and  _557
REMARK  216  A    between atoms: _557  and  _558
REMARK  217  A    between atoms: _561  and  _563
REMARK  218  A    between atoms: _563  and  _564
REMARK  219  A    between atoms: _563  and  _566
REMARK  220  A    between atoms: _566  and  _567
REMARK  221  A    between atoms: _567  and  _568
REMARK  222  A    between atoms: _571  and  _573
REMARK  223  A    between atoms: _573  and  _574
REMARK  224  A    between atoms: _573  and  _576
REMARK  225  A    between atoms: _576  and  _577
REMARK  226  A    between atoms: _582  and  _584
REMARK  227  A    between atoms: _584  and  _585
REMARK  228  A    between atoms: _587  and  _589
REMARK  229  A    between atoms: _589  and  _590
REMARK  230  A    between atoms: _589  and  _592
REMARK  231  A    between atoms: _592  and  _593
REMARK  232  A    between atoms: _593  and  _594
REMARK  233  A    between atoms: _596  and  _598
REMARK  234  A    between atoms: _598  and  _599
REMARK  235  A    between atoms: _598  and  _601
REMARK  236  A    between atoms: _601  and  _602
REMARK  237  A    between atoms: _605  and  _607
REMARK  238  A    between atoms: _607  and  _608
REMARK  239  A    between atoms: _607  and  _610
REMARK  240  A    between atoms: _610  and  _611
REMARK  241  A    between atoms: _621  and  _623
REMARK  242  A    between atoms: _623  and  _624
REMARK  243  A    between atoms: _623  and  _626
REMARK  244  A    between atoms: _626  and  _627
REMARK  245  A    between atoms: _629  and  _631
REMARK  246  A    between atoms: _631  and  _632
REMARK  247  A    between atoms: _631  and  _634
REMARK  248  A    between atoms: _634  and  _635
REMARK  249  A    between atoms: _640  and  _642
REMARK  250  A    between atoms: _642  and  _643
REMARK  251  A    between atoms: _642  and  _645
REMARK  252  A    between atoms: _645  and  _646
REMARK  253  A    between atoms: _652  and  _654
REMARK  254  A    between atoms: _654  and  _655
REMARK  255  A    between atoms: _654  and  _657
REMARK  256  A    between atoms: _657  and  _658
REMARK  257  A    between atoms: _658  and  _659
REMARK  258  A    between atoms: _662  and  _664
REMARK  259  A    between atoms: _664  and  _665
REMARK  260  A    between atoms: _664  and  _667
REMARK  261  A    between atoms: _667  and  _668
REMARK  262  A    between atoms: _678  and  _680
REMARK  263  A    between atoms: _680  and  _681
REMARK  264  A    between atoms: _680  and  _683
REMARK  265  A    between atoms: _683  and  _684
REMARK  266  A    between atoms: _687  and  _689
REMARK  267  A    between atoms: _689  and  _690
REMARK  268  A    between atoms: _689  and  _692
REMARK  269  A    between atoms: _692  and  _693
REMARK  270  A    between atoms: _695  and  _697
REMARK  271  A    between atoms: _697  and  _698
REMARK  272  A    between atoms: _697  and  _700
REMARK  273  A    between atoms: _700  and  _701
REMARK  274  A    between atoms: _703  and  _705
REMARK  275  A    between atoms: _705  and  _706
REMARK  276  A    between atoms: _705  and  _708
REMARK  277  A    between atoms: _708  and  _709
REMARK                            x       y       z     vdW  Elec       q    Type
REMARK                         _______ _______ _______ _____ _____    ______ ____
ROOT
ATOM      1  O   HOH     1      -3.683  -5.241  44.832  0.00  0.00    +0.000 OA
ENDROOT
TORSDOF 0
