REMARK  Name = ../refined-set-2016/4avj/4avj_pocket.pdb
REMARK  112 active torsions:
REMARK  status: ('A' for Active; 'I' for Inactive)
REMARK    1  A    between atoms: _1  and  _5
REMARK    2  A    between atoms: _5  and  _6
REMARK    3  A    between atoms: _5  and  _8
REMARK    4  A    between atoms: _8  and  _9
REMARK    5  A    between atoms: _15  and  _17
REMARK    6  A    between atoms: _17  and  _18
REMARK    7  A    between atoms: _22  and  _23
REMARK    8  A    between atoms: _28  and  _30
REMARK    9  A    between atoms: _30  and  _31
REMARK   10  A    between atoms: _30  and  _33
REMARK   11  A    between atoms: _33  and  _34
REMARK   12  A    between atoms: _37  and  _39
REMARK   13  A    between atoms: _39  and  _40
REMARK   14  A    between atoms: _42  and  _44
REMARK   15  A    between atoms: _44  and  _45
REMARK   16  A    between atoms: _47  and  _49
REMARK   17  A    between atoms: _60  and  _63
REMARK   18  A    between atoms: _63  and  _64
REMARK   19  A    between atoms: _71  and  _72
REMARK   20  A    between atoms: _78  and  _80
REMARK   21  A    between atoms: _80  and  _81
REMARK   22  A    between atoms: _80  and  _83
REMARK   23  A    between atoms: _83  and  _84
REMARK   24  A    between atoms: _89  and  _90
REMARK   25  A    between atoms: _93  and  _94
REMARK   26  A    between atoms: _99  and  _101
REMARK   27  A    between atoms: _101  and  _102
REMARK   28  A    between atoms: _101  and  _104
REMARK   29  A    between atoms: _104  and  _105
REMARK   30  A    between atoms: _105  and  _106
REMARK   31  A    between atoms: _109  and  _111
REMARK   32  A    between atoms: _111  and  _112
REMARK   33  A    between atoms: _111  and  _114
REMARK   34  A    between atoms: _114  and  _115
REMARK   35  A    between atoms: _118  and  _120
REMARK   36  A    between atoms: _120  and  _121
REMARK   37  A    between atoms: _120  and  _123
REMARK   38  A    between atoms: _123  and  _124
REMARK   39  A    between atoms: _127  and  _129
REMARK   40  A    between atoms: _129  and  _130
REMARK   41  A    between atoms: _129  and  _132
REMARK   42  A    between atoms: _132  and  _133
REMARK   43  A    between atoms: _136  and  _138
REMARK   44  A    between atoms: _138  and  _139
REMARK   45  A    between atoms: _138  and  _141
REMARK   46  A    between atoms: _141  and  _142
REMARK   47  A    between atoms: _145  and  _147
REMARK   48  A    between atoms: _147  and  _148
REMARK   49  A    between atoms: _147  and  _150
REMARK   50  A    between atoms: _150  and  _151
REMARK   51  A    between atoms: _156  and  _157
REMARK   52  A    between atoms: _159  and  _161
REMARK   53  A    between atoms: _161  and  _162
REMARK   54  A    between atoms: _161  and  _164
REMARK   55  A    between atoms: _164  and  _165
REMARK   56  A    between atoms: _170  and  _171
REMARK   57  A    between atoms: _173  and  _175
REMARK   58  A    between atoms: _175  and  _176
REMARK   59  A    between atoms: _175  and  _178
REMARK   60  A    between atoms: _178  and  _179
REMARK   61  A    between atoms: _181  and  _183
REMARK   62  A    between atoms: _183  and  _184
REMARK   63  A    between atoms: _183  and  _186
REMARK   64  A    between atoms: _186  and  _187
REMARK   65  A    between atoms: _187  and  _188
REMARK   66  A    between atoms: _188  and  _189
REMARK   67  A    between atoms: _198  and  _200
REMARK   68  A    between atoms: _200  and  _201
REMARK   69  A    between atoms: _200  and  _203
REMARK   70  A    between atoms: _203  and  _204
REMARK   71  A    between atoms: _204  and  _205
REMARK   72  A    between atoms: _210  and  _212
REMARK   73  A    between atoms: _212  and  _213
REMARK   74  A    between atoms: _212  and  _215
REMARK   75  A    between atoms: _215  and  _216
REMARK   76  A    between atoms: _219  and  _221
REMARK   77  A    between atoms: _221  and  _222
REMARK   78  A    between atoms: _221  and  _224
REMARK   79  A    between atoms: _224  and  _225
REMARK   80  A    between atoms: _230  and  _232
REMARK   81  A    between atoms: _232  and  _233
REMARK   82  A    between atoms: _232  and  _235
REMARK   83  A    between atoms: _235  and  _236
REMARK   84  A    between atoms: _241  and  _243
REMARK   85  A    between atoms: _243  and  _244
REMARK   86  A    between atoms: _243  and  _246
REMARK   87  A    between atoms: _246  and  _247
REMARK   88  A    between atoms: _252  and  _253
REMARK   89  A    between atoms: _255  and  _257
REMARK   90  A    between atoms: _257  and  _258
REMARK   91  A    between atoms: _257  and  _260
REMARK   92  A    between atoms: _260  and  _261
REMARK   93  A    between atoms: _266  and  _268
REMARK   94  A    between atoms: _268  and  _269
REMARK   95  A    between atoms: _268  and  _271
REMARK   96  A    between atoms: _271  and  _272
REMARK   97  A    between atoms: _274  and  _276
REMARK   98  A    between atoms: _276  and  _277
REMARK   99  A    between atoms: _276  and  _279
REMARK  100  A    between atoms: _279  and  _280
REMARK  101  A    between atoms: _283  and  _285
REMARK  102  A    between atoms: _285  and  _286
REMARK  103  A    between atoms: _285  and  _288
REMARK  104  A    between atoms: _288  and  _289
REMARK  105  A    between atoms: _292  and  _294
REMARK  106  A    between atoms: _294  and  _295
REMARK  107  A    between atoms: _294  and  _297
REMARK  108  A    between atoms: _297  and  _298
REMARK  109  A    between atoms: _304  and  _306
REMARK  110  A    between atoms: _306  and  _307
REMARK  111  A    between atoms: _306  and  _309
REMARK  112  A    between atoms: _309  and  _310
REMARK                            x       y       z     vdW  Elec       q    Type
REMARK                         _______ _______ _______ _____ _____    ______ ____
ROOT
ATOM      1  CA  PHE A   1     -56.569 -17.718 -22.352  0.00  0.00    +0.017 C 
ENDROOT
BRANCH   1   2
ATOM      2  N   PHE A   1     -57.965 -17.950 -22.747  0.00  0.00    +0.388 N 
ATOM      3  H1  PHE A   1     -58.596 -17.421 -22.112  0.00  0.00    -0.089 HD
ATOM      4  H2  PHE A   1     -58.178 -18.966 -22.682  0.00  0.00    -0.089 HD
ATOM      5  H3  PHE A   1     -58.105 -17.627 -23.726  0.00  0.00    -0.089 HD
ENDBRANCH   1   2
BRANCH   1   6
ATOM      6  C   PHE A   1     -55.683 -18.483 -23.271  0.00  0.00    +0.202 C 
ATOM      7  O   PHE A   1     -55.882 -19.670 -23.460  0.00  0.00    -0.277 OA
ATOM      8  N   ALA A   2     -54.718 -17.793 -23.868  0.00  0.00    -0.301 N 
ATOM      9  H   ALA A   2     -54.667 -16.763 -23.737  0.00  0.00    +0.150 HD
BRANCH   8  10
ATOM     10  CA  ALA A   2     -53.734 -18.458 -24.700  0.00  0.00    +0.137 C 
ATOM     11  CB  ALA A   2     -54.254 -18.640 -26.126  0.00  0.00    +0.030 C 
BRANCH  10  12
ATOM     12  C   ALA A   2     -52.432 -17.656 -24.679  0.00  0.00    +0.227 C 
ATOM     13  O   ALA A   2     -52.396 -16.523 -24.216  0.00  0.00    -0.286 OA
ENDBRANCH  10  12
ENDBRANCH   8  10
ENDBRANCH   1   6
BRANCH   1  14
ATOM     14  CB  PHE A   1     -56.317 -18.175 -20.896  0.00  0.00    +0.013 C 
BRANCH  14  15
ATOM     15  CG  PHE A   1     -54.872 -18.043 -20.464  0.00  0.00    -0.024 A 
ATOM     16  CD2 PHE A   1     -54.420 -16.879 -19.877  0.00  0.00    -0.004 A 
ATOM     17  CE2 PHE A   1     -53.096 -16.747 -19.484  0.00  0.00    -0.000 A 
ATOM     18  CZ  PHE A   1     -52.218 -17.756 -19.740  0.00  0.00    -0.000 A 
ATOM     19  CE1 PHE A   1     -52.656 -18.920 -20.314  0.00  0.00    -0.000 A 
ATOM     20  CD1 PHE A   1     -53.967 -19.060 -20.699  0.00  0.00    -0.004 A 
ENDBRANCH  14  15
ENDBRANCH   1  14
TORSDOF 6
REMARK  Name = ../refined-set-2016/4avj/4avj_pocket.pdb
REMARK  112 active torsions:
REMARK  status: ('A' for Active; 'I' for Inactive)
REMARK    1  A    between atoms: _1  and  _5
REMARK    2  A    between atoms: _5  and  _6
REMARK    3  A    between atoms: _5  and  _8
REMARK    4  A    between atoms: _8  and  _9
REMARK    5  A    between atoms: _15  and  _17
REMARK    6  A    between atoms: _17  and  _18
REMARK    7  A    between atoms: _22  and  _23
REMARK    8  A    between atoms: _28  and  _30
REMARK    9  A    between atoms: _30  and  _31
REMARK   10  A    between atoms: _30  and  _33
REMARK   11  A    between atoms: _33  and  _34
REMARK   12  A    between atoms: _37  and  _39
REMARK   13  A    between atoms: _39  and  _40
REMARK   14  A    between atoms: _42  and  _44
REMARK   15  A    between atoms: _44  and  _45
REMARK   16  A    between atoms: _47  and  _49
REMARK   17  A    between atoms: _60  and  _63
REMARK   18  A    between atoms: _63  and  _64
REMARK   19  A    between atoms: _71  and  _72
REMARK   20  A    between atoms: _78  and  _80
REMARK   21  A    between atoms: _80  and  _81
REMARK   22  A    between atoms: _80  and  _83
REMARK   23  A    between atoms: _83  and  _84
REMARK   24  A    between atoms: _89  and  _90
REMARK   25  A    between atoms: _93  and  _94
REMARK   26  A    between atoms: _99  and  _101
REMARK   27  A    between atoms: _101  and  _102
REMARK   28  A    between atoms: _101  and  _104
REMARK   29  A    between atoms: _104  and  _105
REMARK   30  A    between atoms: _105  and  _106
REMARK   31  A    between atoms: _109  and  _111
REMARK   32  A    between atoms: _111  and  _112
REMARK   33  A    between atoms: _111  and  _114
REMARK   34  A    between atoms: _114  and  _115
REMARK   35  A    between atoms: _118  and  _120
REMARK   36  A    between atoms: _120  and  _121
REMARK   37  A    between atoms: _120  and  _123
REMARK   38  A    between atoms: _123  and  _124
REMARK   39  A    between atoms: _127  and  _129
REMARK   40  A    between atoms: _129  and  _130
REMARK   41  A    between atoms: _129  and  _132
REMARK   42  A    between atoms: _132  and  _133
REMARK   43  A    between atoms: _136  and  _138
REMARK   44  A    between atoms: _138  and  _139
REMARK   45  A    between atoms: _138  and  _141
REMARK   46  A    between atoms: _141  and  _142
REMARK   47  A    between atoms: _145  and  _147
REMARK   48  A    between atoms: _147  and  _148
REMARK   49  A    between atoms: _147  and  _150
REMARK   50  A    between atoms: _150  and  _151
REMARK   51  A    between atoms: _156  and  _157
REMARK   52  A    between atoms: _159  and  _161
REMARK   53  A    between atoms: _161  and  _162
REMARK   54  A    between atoms: _161  and  _164
REMARK   55  A    between atoms: _164  and  _165
REMARK   56  A    between atoms: _170  and  _171
REMARK   57  A    between atoms: _173  and  _175
REMARK   58  A    between atoms: _175  and  _176
REMARK   59  A    between atoms: _175  and  _178
REMARK   60  A    between atoms: _178  and  _179
REMARK   61  A    between atoms: _181  and  _183
REMARK   62  A    between atoms: _183  and  _184
REMARK   63  A    between atoms: _183  and  _186
REMARK   64  A    between atoms: _186  and  _187
REMARK   65  A    between atoms: _187  and  _188
REMARK   66  A    between atoms: _188  and  _189
REMARK   67  A    between atoms: _198  and  _200
REMARK   68  A    between atoms: _200  and  _201
REMARK   69  A    between atoms: _200  and  _203
REMARK   70  A    between atoms: _203  and  _204
REMARK   71  A    between atoms: _204  and  _205
REMARK   72  A    between atoms: _210  and  _212
REMARK   73  A    between atoms: _212  and  _213
REMARK   74  A    between atoms: _212  and  _215
REMARK   75  A    between atoms: _215  and  _216
REMARK   76  A    between atoms: _219  and  _221
REMARK   77  A    between atoms: _221  and  _222
REMARK   78  A    between atoms: _221  and  _224
REMARK   79  A    between atoms: _224  and  _225
REMARK   80  A    between atoms: _230  and  _232
REMARK   81  A    between atoms: _232  and  _233
REMARK   82  A    between atoms: _232  and  _235
REMARK   83  A    between atoms: _235  and  _236
REMARK   84  A    between atoms: _241  and  _243
REMARK   85  A    between atoms: _243  and  _244
REMARK   86  A    between atoms: _243  and  _246
REMARK   87  A    between atoms: _246  and  _247
REMARK   88  A    between atoms: _252  and  _253
REMARK   89  A    between atoms: _255  and  _257
REMARK   90  A    between atoms: _257  and  _258
REMARK   91  A    between atoms: _257  and  _260
REMARK   92  A    between atoms: _260  and  _261
REMARK   93  A    between atoms: _266  and  _268
REMARK   94  A    between atoms: _268  and  _269
REMARK   95  A    between atoms: _268  and  _271
REMARK   96  A    between atoms: _271  and  _272
REMARK   97  A    between atoms: _274  and  _276
REMARK   98  A    between atoms: _276  and  _277
REMARK   99  A    between atoms: _276  and  _279
REMARK  100  A    between atoms: _279  and  _280
REMARK  101  A    between atoms: _283  and  _285
REMARK  102  A    between atoms: _285  and  _286
REMARK  103  A    between atoms: _285  and  _288
REMARK  104  A    between atoms: _288  and  _289
REMARK  105  A    between atoms: _292  and  _294
REMARK  106  A    between atoms: _294  and  _295
REMARK  107  A    between atoms: _294  and  _297
REMARK  108  A    between atoms: _297  and  _298
REMARK  109  A    between atoms: _304  and  _306
REMARK  110  A    between atoms: _306  and  _307
REMARK  111  A    between atoms: _306  and  _309
REMARK  112  A    between atoms: _309  and  _310
REMARK                            x       y       z     vdW  Elec       q    Type
REMARK                         _______ _______ _______ _____ _____    ______ ____
ROOT
ATOM      1  CA  ILE A   2     -56.861 -22.212 -25.720  0.00  0.00    +0.148 C 
ENDROOT
BRANCH   1   4
ATOM      2  C   PRO A   1     -54.712 -22.424 -26.896  0.00  0.00    +0.239 C 
ATOM      3  O   PRO A   1     -54.200 -23.085 -26.016  0.00  0.00    -0.274 OA
ATOM      4  N   ILE A   2     -55.939 -21.924 -26.823  0.00  0.00    -0.297 N 
ATOM      5  H   ILE A   2     -56.263 -21.296 -27.586  0.00  0.00    +0.150 HD
BRANCH   2   7
ATOM      6  N   PRO A   1     -52.564 -22.591 -28.123  0.00  0.00    -0.210 NA
ATOM      7  CA  PRO A   1     -53.940 -22.125 -28.163  0.00  0.00    +0.149 C 
ATOM      8  CB  PRO A   1     -54.540 -22.950 -29.300  0.00  0.00    +0.028 C 
ATOM      9  CG  PRO A   1     -53.851 -24.240 -29.187  0.00  0.00    +0.021 C 
ATOM     10  CD  PRO A   1     -52.412 -23.897 -28.773  0.00  0.00    +0.089 C 
ENDBRANCH   2   7
ENDBRANCH   1   4
BRANCH   1  11
ATOM     11  C   ILE A   2     -56.831 -23.676 -25.369  0.00  0.00    +0.241 C 
ATOM     12  N   GLY A   3     -56.752 -24.014 -24.088  0.00  0.00    -0.295 N 
ATOM     13  H   GLY A   3     -56.667 -23.281 -23.355  0.00  0.00    +0.150 HD
ATOM     14  O   ILE A   2     -56.836 -24.524 -26.267  0.00  0.00    -0.273 OA
BRANCH  12  15
ATOM     15  CA  GLY A   3     -56.786 -25.414 -23.722  0.00  0.00    +0.176 C 
BRANCH  15  16
ATOM     16  C   GLY A   3     -55.418 -26.028 -23.467  0.00  0.00    +0.243 C 
ATOM     17  O   GLY A   3     -55.281 -27.166 -22.971  0.00  0.00    -0.273 OA
ATOM     18  N   GLY A   4     -54.391 -25.254 -23.779  0.00  0.00    -0.296 N 
ATOM     19  H   GLY A   4     -54.566 -24.352 -24.266  0.00  0.00    +0.150 HD
BRANCH  18  20
ATOM     20  CA  GLY A   4     -53.022 -25.634 -23.458  0.00  0.00    +0.163 C 
BRANCH  20  21
ATOM     21  C   GLY A   4     -52.319 -26.456 -24.538  0.00  0.00    +0.229 C 
ATOM     22  O   GLY A   4     -52.810 -26.645 -25.636  0.00  0.00    -0.286 OA
ENDBRANCH  20  21
ENDBRANCH  18  20
ENDBRANCH  15  16
ENDBRANCH  12  15
ENDBRANCH   1  11
BRANCH   1  23
ATOM     23  CB  ILE A   2     -58.296 -21.845 -26.131  0.00  0.00    +0.027 C 
ATOM     24  CG2 ILE A   2     -59.294 -22.515 -25.226  0.00  0.00    +0.002 C 
BRANCH  23  25
ATOM     25  CG1 ILE A   2     -58.489 -20.331 -26.116  0.00  0.00    +0.002 C 
ATOM     26  CD1 ILE A   2     -59.746 -19.893 -26.877  0.00  0.00    +0.000 C 
ENDBRANCH  23  25
ENDBRANCH   1  23
TORSDOF 9
REMARK  Name = ../refined-set-2016/4avj/4avj_pocket.pdb
REMARK  112 active torsions:
REMARK  status: ('A' for Active; 'I' for Inactive)
REMARK    1  A    between atoms: _1  and  _5
REMARK    2  A    between atoms: _5  and  _6
REMARK    3  A    between atoms: _5  and  _8
REMARK    4  A    between atoms: _8  and  _9
REMARK    5  A    between atoms: _15  and  _17
REMARK    6  A    between atoms: _17  and  _18
REMARK    7  A    between atoms: _22  and  _23
REMARK    8  A    between atoms: _28  and  _30
REMARK    9  A    between atoms: _30  and  _31
REMARK   10  A    between atoms: _30  and  _33
REMARK   11  A    between atoms: _33  and  _34
REMARK   12  A    between atoms: _37  and  _39
REMARK   13  A    between atoms: _39  and  _40
REMARK   14  A    between atoms: _42  and  _44
REMARK   15  A    between atoms: _44  and  _45
REMARK   16  A    between atoms: _47  and  _49
REMARK   17  A    between atoms: _60  and  _63
REMARK   18  A    between atoms: _63  and  _64
REMARK   19  A    between atoms: _71  and  _72
REMARK   20  A    between atoms: _78  and  _80
REMARK   21  A    between atoms: _80  and  _81
REMARK   22  A    between atoms: _80  and  _83
REMARK   23  A    between atoms: _83  and  _84
REMARK   24  A    between atoms: _89  and  _90
REMARK   25  A    between atoms: _93  and  _94
REMARK   26  A    between atoms: _99  and  _101
REMARK   27  A    between atoms: _101  and  _102
REMARK   28  A    between atoms: _101  and  _104
REMARK   29  A    between atoms: _104  and  _105
REMARK   30  A    between atoms: _105  and  _106
REMARK   31  A    between atoms: _109  and  _111
REMARK   32  A    between atoms: _111  and  _112
REMARK   33  A    between atoms: _111  and  _114
REMARK   34  A    between atoms: _114  and  _115
REMARK   35  A    between atoms: _118  and  _120
REMARK   36  A    between atoms: _120  and  _121
REMARK   37  A    between atoms: _120  and  _123
REMARK   38  A    between atoms: _123  and  _124
REMARK   39  A    between atoms: _127  and  _129
REMARK   40  A    between atoms: _129  and  _130
REMARK   41  A    between atoms: _129  and  _132
REMARK   42  A    between atoms: _132  and  _133
REMARK   43  A    between atoms: _136  and  _138
REMARK   44  A    between atoms: _138  and  _139
REMARK   45  A    between atoms: _138  and  _141
REMARK   46  A    between atoms: _141  and  _142
REMARK   47  A    between atoms: _145  and  _147
REMARK   48  A    between atoms: _147  and  _148
REMARK   49  A    between atoms: _147  and  _150
REMARK   50  A    between atoms: _150  and  _151
REMARK   51  A    between atoms: _156  and  _157
REMARK   52  A    between atoms: _159  and  _161
REMARK   53  A    between atoms: _161  and  _162
REMARK   54  A    between atoms: _161  and  _164
REMARK   55  A    between atoms: _164  and  _165
REMARK   56  A    between atoms: _170  and  _171
REMARK   57  A    between atoms: _173  and  _175
REMARK   58  A    between atoms: _175  and  _176
REMARK   59  A    between atoms: _175  and  _178
REMARK   60  A    between atoms: _178  and  _179
REMARK   61  A    between atoms: _181  and  _183
REMARK   62  A    between atoms: _183  and  _184
REMARK   63  A    between atoms: _183  and  _186
REMARK   64  A    between atoms: _186  and  _187
REMARK   65  A    between atoms: _187  and  _188
REMARK   66  A    between atoms: _188  and  _189
REMARK   67  A    between atoms: _198  and  _200
REMARK   68  A    between atoms: _200  and  _201
REMARK   69  A    between atoms: _200  and  _203
REMARK   70  A    between atoms: _203  and  _204
REMARK   71  A    between atoms: _204  and  _205
REMARK   72  A    between atoms: _210  and  _212
REMARK   73  A    between atoms: _212  and  _213
REMARK   74  A    between atoms: _212  and  _215
REMARK   75  A    between atoms: _215  and  _216
REMARK   76  A    between atoms: _219  and  _221
REMARK   77  A    between atoms: _221  and  _222
REMARK   78  A    between atoms: _221  and  _224
REMARK   79  A    between atoms: _224  and  _225
REMARK   80  A    between atoms: _230  and  _232
REMARK   81  A    between atoms: _232  and  _233
REMARK   82  A    between atoms: _232  and  _235
REMARK   83  A    between atoms: _235  and  _236
REMARK   84  A    between atoms: _241  and  _243
REMARK   85  A    between atoms: _243  and  _244
REMARK   86  A    between atoms: _243  and  _246
REMARK   87  A    between atoms: _246  and  _247
REMARK   88  A    between atoms: _252  and  _253
REMARK   89  A    between atoms: _255  and  _257
REMARK   90  A    between atoms: _257  and  _258
REMARK   91  A    between atoms: _257  and  _260
REMARK   92  A    between atoms: _260  and  _261
REMARK   93  A    between atoms: _266  and  _268
REMARK   94  A    between atoms: _268  and  _269
REMARK   95  A    between atoms: _268  and  _271
REMARK   96  A    between atoms: _271  and  _272
REMARK   97  A    between atoms: _274  and  _276
REMARK   98  A    between atoms: _276  and  _277
REMARK   99  A    between atoms: _276  and  _279
REMARK  100  A    between atoms: _279  and  _280
REMARK  101  A    between atoms: _283  and  _285
REMARK  102  A    between atoms: _285  and  _286
REMARK  103  A    between atoms: _285  and  _288
REMARK  104  A    between atoms: _288  and  _289
REMARK  105  A    between atoms: _292  and  _294
REMARK  106  A    between atoms: _294  and  _295
REMARK  107  A    between atoms: _294  and  _297
REMARK  108  A    between atoms: _297  and  _298
REMARK  109  A    between atoms: _304  and  _306
REMARK  110  A    between atoms: _306  and  _307
REMARK  111  A    between atoms: _306  and  _309
REMARK  112  A    between atoms: _309  and  _310
REMARK                            x       y       z     vdW  Elec       q    Type
REMARK                         _______ _______ _______ _____ _____    ______ ____
ROOT
ATOM      1  CA  GLU A   6     -65.141  -8.632 -18.488  0.00  0.00    +0.000 C 
ENDROOT
BRANCH   1   2
ATOM      2  C   GLU A   6     -65.944  -9.536 -17.531  0.00  0.00    +0.000 C 
ATOM      3  O   GLU A   6     -66.676  -9.051 -16.686  0.00  0.00    +0.000 OA
ATOM      4  N   THR A   7     -65.794 -10.846 -17.647  0.00  0.00    +0.000 N 
ATOM      5  H   THR A   7     -65.182 -11.234 -18.393  0.00  0.00    +0.000 HD
BRANCH   4   6
ATOM      6  CA  THR A   7     -66.479 -11.738 -16.738  0.00  0.00    +0.000 C 
BRANCH   6   7
ATOM      7  C   THR A   7     -65.565 -12.764 -16.090  0.00  0.00    +0.000 C 
ATOM      8  O   THR A   7     -65.903 -13.309 -15.045  0.00  0.00    +0.000 OA
ATOM      9  N   ILE A   8     -64.402 -12.998 -16.689  0.00  0.00    +0.000 N 
ATOM     10  H   ILE A   8     -64.117 -12.411 -17.499  0.00  0.00    +0.000 HD
BRANCH   9  11
ATOM     11  CA  ILE A   8     -63.527 -14.054 -16.234  0.00  0.00    +0.000 C 
BRANCH  11  12
ATOM     12  C   ILE A   8     -62.184 -13.529 -15.793  0.00  0.00    +0.000 C 
ATOM     13  N   THR A   9     -61.702 -14.057 -14.669  0.00  0.00    +0.000 N 
ATOM     14  H   THR A   9     -62.307 -14.678 -14.095  0.00  0.00    +0.000 HD
ATOM     15  O   ILE A   8     -61.605 -12.637 -16.440  0.00  0.00    +0.000 OA
BRANCH  13  16
ATOM     16  CA  THR A   9     -60.337 -13.777 -14.231  0.00  0.00    +0.000 C 
BRANCH  16  17
ATOM     17  C   THR A   9     -59.483 -15.059 -14.393  0.00  0.00    +0.000 C 
ATOM     18  O   THR A   9     -59.889 -16.132 -13.976  0.00  0.00    +0.000 OA
ATOM     19  N   ASP A  10     -58.364 -14.943 -15.099  0.00  0.00    +0.000 N 
ATOM     20  H   ASP A  10     -58.146 -14.027 -15.540  0.00  0.00    +0.000 HD
BRANCH  19  21
ATOM     21  CA  ASP A  10     -57.427 -16.047 -15.282  0.00  0.00    +0.000 C 
BRANCH  21  22
ATOM     22  C   ASP A  10     -56.293 -15.972 -14.257  0.00  0.00    +0.000 C 
ATOM     23  N   TYR A  11     -55.980 -17.121 -13.678  0.00  0.00    +0.000 N 
ATOM     24  H   TYR A  11     -56.544 -17.959 -13.925  0.00  0.00    +0.000 HD
ATOM     25  O   ASP A  10     -55.774 -14.894 -13.963  0.00  0.00    +0.000 OA
BRANCH  23  26
ATOM     26  CA  TYR A  11     -54.901 -17.288 -12.721  0.00  0.00    +0.000 C 
BRANCH  26  27
ATOM     27  C   TYR A  11     -53.792 -18.163 -13.322  0.00  0.00    +0.000 C 
ATOM     28  O   TYR A  11     -54.048 -19.290 -13.723  0.00  0.00    +0.000 OA
ENDBRANCH  26  27
BRANCH  26  29
ATOM     29  CB  TYR A  11     -55.412 -17.985 -11.460  0.00  0.00    +0.000 C 
BRANCH  29  30
ATOM     30  CG  TYR A  11     -56.592 -17.348 -10.831  0.00  0.00    +0.000 A 
ATOM     31  CD2 TYR A  11     -56.522 -16.061 -10.334  0.00  0.00    +0.000 A 
ATOM     32  CE2 TYR A  11     -57.638 -15.458  -9.739  0.00  0.00    +0.000 A 
ATOM     33  CZ  TYR A  11     -58.823 -16.154  -9.673  0.00  0.00    +0.000 A 
ATOM     34  CE1 TYR A  11     -58.914 -17.440 -10.176  0.00  0.00    +0.000 A 
ATOM     35  CD1 TYR A  11     -57.807 -18.022 -10.758  0.00  0.00    +0.000 A 
BRANCH  33  36
ATOM     36  OH  TYR A  11     -59.919 -15.574  -9.089  0.00  0.00    +0.000 OA
ATOM     37  HH  TYR A  11     -59.685 -14.661  -8.785  0.00  0.00    +0.000 HD
ENDBRANCH  33  36
ENDBRANCH  29  30
ENDBRANCH  26  29
ENDBRANCH  23  26
ENDBRANCH  21  22
BRANCH  21  38
ATOM     38  CB  ASP A  10     -56.852 -16.037 -16.687  0.00  0.00    +0.000 C 
BRANCH  38  39
ATOM     39  CG  ASP A  10     -57.878 -16.411 -17.733  0.00  0.00    +0.000 C 
ATOM     40  OD2 ASP A  10     -58.684 -17.333 -17.462  0.00  0.00    +0.000 OA
ATOM     41  OD1 ASP A  10     -57.916 -15.753 -18.805  0.00  0.00    +0.000 OA
ENDBRANCH  38  39
ENDBRANCH  21  38
ENDBRANCH  19  21
ENDBRANCH  16  17
BRANCH  16  42
ATOM     42  CB  THR A   9     -60.299 -13.287 -12.774  0.00  0.00    +0.000 C 
ATOM     43  CG2 THR A   9     -58.860 -13.182 -12.285  0.00  0.00    +0.000 C 
BRANCH  42  44
ATOM     44  OG1 THR A   9     -60.869 -11.979 -12.726  0.00  0.00    +0.000 OA
ATOM     45  HG1 THR A   9     -61.804 -12.016 -13.048  0.00  0.00    +0.000 HD
ENDBRANCH  42  44
ENDBRANCH  16  42
ENDBRANCH  13  16
ENDBRANCH  11  12
BRANCH  11  46
ATOM     46  CB  ILE A   8     -63.297 -15.090 -17.320  0.00  0.00    +0.000 C 
ATOM     47  CG2 ILE A   8     -62.445 -16.202 -16.793  0.00  0.00    +0.000 C 
BRANCH  46  48
ATOM     48  CG1 ILE A   8     -64.628 -15.672 -17.786  0.00  0.00    +0.000 C 
ATOM     49  CD1 ILE A   8     -64.490 -16.803 -18.825  0.00  0.00    +0.000 C 
ENDBRANCH  46  48
ENDBRANCH  11  46
ENDBRANCH   9  11
ENDBRANCH   6   7
BRANCH   6  50
ATOM     50  CB  THR A   7     -67.604 -12.516 -17.455  0.00  0.00    +0.000 C 
ATOM     51  CG2 THR A   7     -68.823 -11.649 -17.642  0.00  0.00    +0.000 C 
BRANCH  50  52
ATOM     52  OG1 THR A   7     -67.141 -12.948 -18.731  0.00  0.00    +0.000 OA
ATOM     53  HG1 THR A   7     -67.862 -13.447 -19.191  0.00  0.00    +0.000 HD
ENDBRANCH  50  52
ENDBRANCH   6  50
ENDBRANCH   4   6
ENDBRANCH   1   2
BRANCH   1  56
ATOM     54  C   PRO A   5     -62.921  -9.626 -18.307  0.00  0.00    +0.000 C 
ATOM     55  O   PRO A   5     -62.896  -9.433 -17.091  0.00  0.00    +0.000 OA
ATOM     56  N   GLU A   6     -63.949  -9.265 -19.062  0.00  0.00    +0.000 N 
ATOM     57  H   GLU A   6     -63.909  -9.435 -20.087  0.00  0.00    +0.000 HD
BRANCH  54  61
ATOM     58  C   TYR A   4     -62.908 -11.977 -20.338  0.00  0.00    +0.000 C 
ATOM     59  O   TYR A   4     -63.537 -12.403 -19.379  0.00  0.00    +0.000 OA
ATOM     60  N   PRO A   5     -62.116 -10.920 -20.276  0.00  0.00    +0.000 N 
ATOM     61  CA  PRO A   5     -61.737 -10.300 -19.014  0.00  0.00    +0.000 C 
ATOM     62  CB  PRO A   5     -60.686  -9.278 -19.448  0.00  0.00    +0.000 C 
ATOM     63  CG  PRO A   5     -61.055  -8.938 -20.905  0.00  0.00    +0.000 C 
ATOM     64  CD  PRO A   5     -61.523 -10.243 -21.451  0.00  0.00    +0.000 C 
BRANCH  58  65
ATOM     65  CA  TYR A   4     -63.026 -12.625 -21.682  0.00  0.00    +0.000 C 
BRANCH  65  67
ATOM     66  C   UNK A   3     -61.420 -13.340 -23.430  0.00  0.00    +0.000 C 
ATOM     67  N   TYR A   4     -61.744 -13.207 -22.145  0.00  0.00    +0.000 N 
ATOM     68  H   TYR A   4     -61.062 -13.528 -21.429  0.00  0.00    +0.000 HD
ATOM     69  O   UNK A   3     -62.197 -13.050 -24.341  0.00  0.00    +0.000 OA
BRANCH  66  77
ATOM     70  C   UNK A   1     -53.845 -12.836 -22.629  0.00  0.00    +0.000 C 
ATOM     71  C   UNK A   1     -55.088 -13.567 -22.154  0.00  0.00    +0.000 C 
ATOM     72  N   ASN A   2     -56.030 -12.799 -21.606  0.00  0.00    +0.000 N 
ATOM     73  CA  ASN A   2     -57.304 -13.304 -21.135  0.00  0.00    +0.000 C 
ATOM     74  C   ASN A   2     -58.329 -13.069 -22.261  0.00  0.00    +0.000 C 
ATOM     75  N   UNK A   3     -59.096 -14.081 -22.640  0.00  0.00    +0.000 N 
ATOM     76  H   UNK A   3     -59.031 -14.986 -22.132  0.00  0.00    +0.000 HD
ATOM     77  C   UNK A   3     -60.037 -13.952 -23.763  0.00  0.00    +0.000 C 
ATOM     78  C   UNK A   3     -60.202 -15.282 -24.499  0.00  0.00    +0.000 C 
ATOM     79  C   UNK A   3     -59.080 -15.533 -25.466  0.00  0.00    +0.000 C 
ATOM     80  O   UNK A   3     -58.442 -16.592 -25.381  0.00  0.00    +0.000 OA
ATOM     81  O   UNK A   3     -58.786 -14.621 -26.269  0.00  0.00    +0.000 OA
ATOM     82 NI   UNK A   3     -57.354 -14.662 -27.731  0.00  0.00    +0.000 Ni
ATOM     83  N   UNK A   3     -55.812 -14.121 -26.497  0.00  0.00    +0.000 N 
ATOM     84  C   UNK A   3     -55.889 -13.189 -25.491  0.00  0.00    +0.000 A 
ATOM     85  C   UNK A   3     -54.630 -12.981 -25.045  0.00  0.00    +0.000 A 
ATOM     86  N   UNK A   3     -53.819 -13.806 -25.786  0.00  0.00    +0.000 NA
ATOM     87  C   UNK A   3     -54.551 -14.484 -26.648  0.00  0.00    +0.000 A 
ATOM     88  O   UNK A   3     -57.080 -16.473 -27.773  0.00  0.00    +0.000 OA
ATOM     89  O   ASN A   2     -58.442 -11.967 -22.757  0.00  0.00    +0.000 OA
ATOM     90  H   ASN A   2     -55.840 -11.781 -21.511  0.00  0.00    +0.000 HD
ATOM     91  O   UNK A   1     -55.172 -14.786 -22.246  0.00  0.00    +0.000 OA
ATOM     92  C   UNK A   3     -54.099 -12.103 -23.965  0.00  0.00    +0.000 C 
BRANCH  70  93
ATOM     93  N   UNK A   1     -52.713 -13.756 -22.775  0.00  0.00    +0.000 NA
ATOM     94  H   UNK A   1     -52.878 -14.745 -23.051  0.00  0.00    +0.000 HD
ENDBRANCH  70  93
BRANCH  73  95
ATOM     95  CB  ASN A   2     -57.678 -12.517 -19.870  0.00  0.00    +0.000 C 
BRANCH  95  96
ATOM     96  CG  ASN A   2     -59.032 -12.900 -19.264  0.00  0.00    +0.000 C 
ATOM     97  ND2 ASN A   2     -59.115 -12.807 -17.934  0.00  0.00    +0.000 N 
ATOM     98 HD21 ASN A   2     -58.281 -12.527 -17.379  0.00  0.00    +0.000 HD
ATOM     99 HD22 ASN A   2     -60.013 -13.015 -17.453  0.00  0.00    +0.000 HD
ATOM    100  OD1 ASN A   2     -59.989 -13.227 -19.959  0.00  0.00    +0.000 OA
ENDBRANCH  95  96
ENDBRANCH  73  95
ENDBRANCH  66  77
ENDBRANCH  65  67
BRANCH  65 101
ATOM    101  CB  TYR A   4     -64.125 -13.665 -21.593  0.00  0.00    +0.000 C 
BRANCH 101 102
ATOM    102  CG  TYR A   4     -64.585 -14.187 -22.925  0.00  0.00    +0.000 A 
ATOM    103  CD2 TYR A   4     -63.973 -15.274 -23.534  0.00  0.00    +0.000 A 
ATOM    104  CE2 TYR A   4     -64.416 -15.752 -24.792  0.00  0.00    +0.000 A 
ATOM    105  CZ  TYR A   4     -65.473 -15.124 -25.430  0.00  0.00    +0.000 A 
ATOM    106  CE1 TYR A   4     -66.086 -14.037 -24.837  0.00  0.00    +0.000 A 
ATOM    107  CD1 TYR A   4     -65.641 -13.573 -23.593  0.00  0.00    +0.000 A 
BRANCH 105 108
ATOM    108  OH  TYR A   4     -65.923 -15.578 -26.656  0.00  0.00    +0.000 OA
ATOM    109  HH  TYR A   4     -65.380 -16.357 -26.938  0.00  0.00    +0.000 HD
ENDBRANCH 105 108
ENDBRANCH 101 102
ENDBRANCH  65 101
ENDBRANCH  58  65
ENDBRANCH  54  61
ENDBRANCH   1  56
BRANCH   1 110
ATOM    110  CB  GLU A   6     -66.017  -8.056 -19.609  0.00  0.00    +0.000 C 
BRANCH 110 111
ATOM    111  CG  GLU A   6     -65.372  -6.838 -20.255  0.00  0.00    +0.000 C 
BRANCH 111 112
ATOM    112  CD  GLU A   6     -66.227  -6.184 -21.330  0.00  0.00    +0.000 C 
ATOM    113  OE2 GLU A   6     -66.450  -4.953 -21.245  0.00  0.00    +0.000 OA
ATOM    114  OE1 GLU A   6     -66.664  -6.897 -22.266  0.00  0.00    +0.000 OA
ENDBRANCH 111 112
ENDBRANCH 110 111
ENDBRANCH   1 110
TORSDOF 36
REMARK  Name = ../refined-set-2016/4avj/4avj_pocket.pdb
REMARK  112 active torsions:
REMARK  status: ('A' for Active; 'I' for Inactive)
REMARK    1  A    between atoms: _1  and  _5
REMARK    2  A    between atoms: _5  and  _6
REMARK    3  A    between atoms: _5  and  _8
REMARK    4  A    between atoms: _8  and  _9
REMARK    5  A    between atoms: _15  and  _17
REMARK    6  A    between atoms: _17  and  _18
REMARK    7  A    between atoms: _22  and  _23
REMARK    8  A    between atoms: _28  and  _30
REMARK    9  A    between atoms: _30  and  _31
REMARK   10  A    between atoms: _30  and  _33
REMARK   11  A    between atoms: _33  and  _34
REMARK   12  A    between atoms: _37  and  _39
REMARK   13  A    between atoms: _39  and  _40
REMARK   14  A    between atoms: _42  and  _44
REMARK   15  A    between atoms: _44  and  _45
REMARK   16  A    between atoms: _47  and  _49
REMARK   17  A    between atoms: _60  and  _63
REMARK   18  A    between atoms: _63  and  _64
REMARK   19  A    between atoms: _71  and  _72
REMARK   20  A    between atoms: _78  and  _80
REMARK   21  A    between atoms: _80  and  _81
REMARK   22  A    between atoms: _80  and  _83
REMARK   23  A    between atoms: _83  and  _84
REMARK   24  A    between atoms: _89  and  _90
REMARK   25  A    between atoms: _93  and  _94
REMARK   26  A    between atoms: _99  and  _101
REMARK   27  A    between atoms: _101  and  _102
REMARK   28  A    between atoms: _101  and  _104
REMARK   29  A    between atoms: _104  and  _105
REMARK   30  A    between atoms: _105  and  _106
REMARK   31  A    between atoms: _109  and  _111
REMARK   32  A    between atoms: _111  and  _112
REMARK   33  A    between atoms: _111  and  _114
REMARK   34  A    between atoms: _114  and  _115
REMARK   35  A    between atoms: _118  and  _120
REMARK   36  A    between atoms: _120  and  _121
REMARK   37  A    between atoms: _120  and  _123
REMARK   38  A    between atoms: _123  and  _124
REMARK   39  A    between atoms: _127  and  _129
REMARK   40  A    between atoms: _129  and  _130
REMARK   41  A    between atoms: _129  and  _132
REMARK   42  A    between atoms: _132  and  _133
REMARK   43  A    between atoms: _136  and  _138
REMARK   44  A    between atoms: _138  and  _139
REMARK   45  A    between atoms: _138  and  _141
REMARK   46  A    between atoms: _141  and  _142
REMARK   47  A    between atoms: _145  and  _147
REMARK   48  A    between atoms: _147  and  _148
REMARK   49  A    between atoms: _147  and  _150
REMARK   50  A    between atoms: _150  and  _151
REMARK   51  A    between atoms: _156  and  _157
REMARK   52  A    between atoms: _159  and  _161
REMARK   53  A    between atoms: _161  and  _162
REMARK   54  A    between atoms: _161  and  _164
REMARK   55  A    between atoms: _164  and  _165
REMARK   56  A    between atoms: _170  and  _171
REMARK   57  A    between atoms: _173  and  _175
REMARK   58  A    between atoms: _175  and  _176
REMARK   59  A    between atoms: _175  and  _178
REMARK   60  A    between atoms: _178  and  _179
REMARK   61  A    between atoms: _181  and  _183
REMARK   62  A    between atoms: _183  and  _184
REMARK   63  A    between atoms: _183  and  _186
REMARK   64  A    between atoms: _186  and  _187
REMARK   65  A    between atoms: _187  and  _188
REMARK   66  A    between atoms: _188  and  _189
REMARK   67  A    between atoms: _198  and  _200
REMARK   68  A    between atoms: _200  and  _201
REMARK   69  A    between atoms: _200  and  _203
REMARK   70  A    between atoms: _203  and  _204
REMARK   71  A    between atoms: _204  and  _205
REMARK   72  A    between atoms: _210  and  _212
REMARK   73  A    between atoms: _212  and  _213
REMARK   74  A    between atoms: _212  and  _215
REMARK   75  A    between atoms: _215  and  _216
REMARK   76  A    between atoms: _219  and  _221
REMARK   77  A    between atoms: _221  and  _222
REMARK   78  A    between atoms: _221  and  _224
REMARK   79  A    between atoms: _224  and  _225
REMARK   80  A    between atoms: _230  and  _232
REMARK   81  A    between atoms: _232  and  _233
REMARK   82  A    between atoms: _232  and  _235
REMARK   83  A    between atoms: _235  and  _236
REMARK   84  A    between atoms: _241  and  _243
REMARK   85  A    between atoms: _243  and  _244
REMARK   86  A    between atoms: _243  and  _246
REMARK   87  A    between atoms: _246  and  _247
REMARK   88  A    between atoms: _252  and  _253
REMARK   89  A    between atoms: _255  and  _257
REMARK   90  A    between atoms: _257  and  _258
REMARK   91  A    between atoms: _257  and  _260
REMARK   92  A    between atoms: _260  and  _261
REMARK   93  A    between atoms: _266  and  _268
REMARK   94  A    between atoms: _268  and  _269
REMARK   95  A    between atoms: _268  and  _271
REMARK   96  A    between atoms: _271  and  _272
REMARK   97  A    between atoms: _274  and  _276
REMARK   98  A    between atoms: _276  and  _277
REMARK   99  A    between atoms: _276  and  _279
REMARK  100  A    between atoms: _279  and  _280
REMARK  101  A    between atoms: _283  and  _285
REMARK  102  A    between atoms: _285  and  _286
REMARK  103  A    between atoms: _285  and  _288
REMARK  104  A    between atoms: _288  and  _289
REMARK  105  A    between atoms: _292  and  _294
REMARK  106  A    between atoms: _294  and  _295
REMARK  107  A    between atoms: _294  and  _297
REMARK  108  A    between atoms: _297  and  _298
REMARK  109  A    between atoms: _304  and  _306
REMARK  110  A    between atoms: _306  and  _307
REMARK  111  A    between atoms: _306  and  _309
REMARK  112  A    between atoms: _309  and  _310
REMARK                            x       y       z     vdW  Elec       q    Type
REMARK                         _______ _______ _______ _____ _____    ______ ____
ROOT
ATOM      1  CG  TYR A   1     -52.508 -13.296 -17.318  0.00  0.00    -0.020 A 
ATOM      2  CD2 TYR A   1     -51.803 -13.922 -16.288  0.00  0.00    -0.001 A 
ATOM      3  CE2 TYR A   1     -50.379 -14.024 -16.324  0.00  0.00    +0.036 A 
ATOM      4  CZ  TYR A   1     -49.688 -13.549 -17.412  0.00  0.00    +0.134 A 
ATOM      5  CE1 TYR A   1     -50.371 -12.951 -18.450  0.00  0.00    +0.036 A 
ATOM      6  CD1 TYR A   1     -51.774 -12.813 -18.397  0.00  0.00    -0.001 A 
ENDROOT
BRANCH   4   7
ATOM      7  OH  TYR A   1     -48.306 -13.644 -17.453  0.00  0.00    -0.506 OA
ATOM      8  HH  TYR A   1     -47.915 -12.736 -17.504  0.00  0.00    +0.292 HD
ENDBRANCH   4   7
BRANCH   1   9
ATOM      9  CB  TYR A   1     -54.024 -13.137 -17.242  0.00  0.00    +0.051 C 
BRANCH   9  10
ATOM     10  CA  TYR A   1     -54.427 -12.054 -16.189  0.00  0.00    +0.137 C 
BRANCH  10  11
ATOM     11  N   TYR A   1     -54.342 -12.582 -14.826  0.00  0.00    -0.239 NA
ATOM     12  H   TYR A   1     -54.904 -13.420 -14.573  0.00  0.00    +0.142 HD
ENDBRANCH  10  11
BRANCH  10  13
ATOM     13  C   TYR A   1     -55.873 -11.590 -16.328  0.00  0.00    +0.224 C 
ATOM     14  O   TYR A   1     -56.793 -12.390 -16.190  0.00  0.00    -0.287 OA
ENDBRANCH  10  13
ENDBRANCH   9  10
ENDBRANCH   1   9
TORSDOF 5
REMARK  Name = ../refined-set-2016/4avj/4avj_pocket.pdb
REMARK  112 active torsions:
REMARK  status: ('A' for Active; 'I' for Inactive)
REMARK    1  A    between atoms: _1  and  _5
REMARK    2  A    between atoms: _5  and  _6
REMARK    3  A    between atoms: _5  and  _8
REMARK    4  A    between atoms: _8  and  _9
REMARK    5  A    between atoms: _15  and  _17
REMARK    6  A    between atoms: _17  and  _18
REMARK    7  A    between atoms: _22  and  _23
REMARK    8  A    between atoms: _28  and  _30
REMARK    9  A    between atoms: _30  and  _31
REMARK   10  A    between atoms: _30  and  _33
REMARK   11  A    between atoms: _33  and  _34
REMARK   12  A    between atoms: _37  and  _39
REMARK   13  A    between atoms: _39  and  _40
REMARK   14  A    between atoms: _42  and  _44
REMARK   15  A    between atoms: _44  and  _45
REMARK   16  A    between atoms: _47  and  _49
REMARK   17  A    between atoms: _60  and  _63
REMARK   18  A    between atoms: _63  and  _64
REMARK   19  A    between atoms: _71  and  _72
REMARK   20  A    between atoms: _78  and  _80
REMARK   21  A    between atoms: _80  and  _81
REMARK   22  A    between atoms: _80  and  _83
REMARK   23  A    between atoms: _83  and  _84
REMARK   24  A    between atoms: _89  and  _90
REMARK   25  A    between atoms: _93  and  _94
REMARK   26  A    between atoms: _99  and  _101
REMARK   27  A    between atoms: _101  and  _102
REMARK   28  A    between atoms: _101  and  _104
REMARK   29  A    between atoms: _104  and  _105
REMARK   30  A    between atoms: _105  and  _106
REMARK   31  A    between atoms: _109  and  _111
REMARK   32  A    between atoms: _111  and  _112
REMARK   33  A    between atoms: _111  and  _114
REMARK   34  A    between atoms: _114  and  _115
REMARK   35  A    between atoms: _118  and  _120
REMARK   36  A    between atoms: _120  and  _121
REMARK   37  A    between atoms: _120  and  _123
REMARK   38  A    between atoms: _123  and  _124
REMARK   39  A    between atoms: _127  and  _129
REMARK   40  A    between atoms: _129  and  _130
REMARK   41  A    between atoms: _129  and  _132
REMARK   42  A    between atoms: _132  and  _133
REMARK   43  A    between atoms: _136  and  _138
REMARK   44  A    between atoms: _138  and  _139
REMARK   45  A    between atoms: _138  and  _141
REMARK   46  A    between atoms: _141  and  _142
REMARK   47  A    between atoms: _145  and  _147
REMARK   48  A    between atoms: _147  and  _148
REMARK   49  A    between atoms: _147  and  _150
REMARK   50  A    between atoms: _150  and  _151
REMARK   51  A    between atoms: _156  and  _157
REMARK   52  A    between atoms: _159  and  _161
REMARK   53  A    between atoms: _161  and  _162
REMARK   54  A    between atoms: _161  and  _164
REMARK   55  A    between atoms: _164  and  _165
REMARK   56  A    between atoms: _170  and  _171
REMARK   57  A    between atoms: _173  and  _175
REMARK   58  A    between atoms: _175  and  _176
REMARK   59  A    between atoms: _175  and  _178
REMARK   60  A    between atoms: _178  and  _179
REMARK   61  A    between atoms: _181  and  _183
REMARK   62  A    between atoms: _183  and  _184
REMARK   63  A    between atoms: _183  and  _186
REMARK   64  A    between atoms: _186  and  _187
REMARK   65  A    between atoms: _187  and  _188
REMARK   66  A    between atoms: _188  and  _189
REMARK   67  A    between atoms: _198  and  _200
REMARK   68  A    between atoms: _200  and  _201
REMARK   69  A    between atoms: _200  and  _203
REMARK   70  A    between atoms: _203  and  _204
REMARK   71  A    between atoms: _204  and  _205
REMARK   72  A    between atoms: _210  and  _212
REMARK   73  A    between atoms: _212  and  _213
REMARK   74  A    between atoms: _212  and  _215
REMARK   75  A    between atoms: _215  and  _216
REMARK   76  A    between atoms: _219  and  _221
REMARK   77  A    between atoms: _221  and  _222
REMARK   78  A    between atoms: _221  and  _224
REMARK   79  A    between atoms: _224  and  _225
REMARK   80  A    between atoms: _230  and  _232
REMARK   81  A    between atoms: _232  and  _233
REMARK   82  A    between atoms: _232  and  _235
REMARK   83  A    between atoms: _235  and  _236
REMARK   84  A    between atoms: _241  and  _243
REMARK   85  A    between atoms: _243  and  _244
REMARK   86  A    between atoms: _243  and  _246
REMARK   87  A    between atoms: _246  and  _247
REMARK   88  A    between atoms: _252  and  _253
REMARK   89  A    between atoms: _255  and  _257
REMARK   90  A    between atoms: _257  and  _258
REMARK   91  A    between atoms: _257  and  _260
REMARK   92  A    between atoms: _260  and  _261
REMARK   93  A    between atoms: _266  and  _268
REMARK   94  A    between atoms: _268  and  _269
REMARK   95  A    between atoms: _268  and  _271
REMARK   96  A    between atoms: _271  and  _272
REMARK   97  A    between atoms: _274  and  _276
REMARK   98  A    between atoms: _276  and  _277
REMARK   99  A    between atoms: _276  and  _279
REMARK  100  A    between atoms: _279  and  _280
REMARK  101  A    between atoms: _283  and  _285
REMARK  102  A    between atoms: _285  and  _286
REMARK  103  A    between atoms: _285  and  _288
REMARK  104  A    between atoms: _288  and  _289
REMARK  105  A    between atoms: _292  and  _294
REMARK  106  A    between atoms: _294  and  _295
REMARK  107  A    between atoms: _294  and  _297
REMARK  108  A    between atoms: _297  and  _298
REMARK  109  A    between atoms: _304  and  _306
REMARK  110  A    between atoms: _306  and  _307
REMARK  111  A    between atoms: _306  and  _309
REMARK  112  A    between atoms: _309  and  _310
REMARK                            x       y       z     vdW  Elec       q    Type
REMARK                         _______ _______ _______ _____ _____    ______ ____
ROOT
ATOM      1  CA  ARG A   2     -57.108  -9.116 -23.799  0.00  0.00    +0.137 C 
ENDROOT
BRANCH   1   4
ATOM      2  C   SER A   1     -56.737  -8.936 -21.392  0.00  0.00    +0.241 C 
ATOM      3  O   SER A   1     -56.040  -9.966 -21.402  0.00  0.00    -0.274 OA
ATOM      4  N   ARG A   2     -57.344  -8.477 -22.492  0.00  0.00    -0.298 N 
ATOM      5  H   ARG A   2     -57.988  -7.663 -22.424  0.00  0.00    +0.150 HD
BRANCH   2   6
ATOM      6  CA  SER A   1     -56.929  -8.137 -20.086  0.00  0.00    +0.174 C 
BRANCH   6   7
ATOM      7  N   SER A   1     -56.850  -8.995 -18.910  0.00  0.00    -0.236 NA
ATOM      8  H   SER A   1     -56.247  -9.842 -18.944  0.00  0.00    +0.142 HD
ENDBRANCH   6   7
BRANCH   6   9
ATOM      9  CB  SER A   1     -55.858  -7.042 -19.961  0.00  0.00    +0.163 C 
BRANCH   9  10
ATOM     10  OG  SER A   1     -55.687  -6.312 -21.151  0.00  0.00    -0.380 OA
ATOM     11  H   SER A   1     -54.989  -5.623 -21.017  0.00  0.00    +0.211 HD
ENDBRANCH   9  10
ENDBRANCH   6   9
ENDBRANCH   2   6
ENDBRANCH   1   4
BRANCH   1  12
ATOM     12  C   ARG A   2     -55.792  -8.687 -24.446  0.00  0.00    +0.227 C 
ATOM     13  O   ARG A   2     -55.353  -9.304 -25.417  0.00  0.00    -0.286 OA
ENDBRANCH   1  12
BRANCH   1  14
ATOM     14  CB  ARG A   2     -58.223  -8.825 -24.804  0.00  0.00    +0.031 C 
BRANCH  14  15
ATOM     15  CG  ARG A   2     -59.498  -9.520 -24.561  0.00  0.00    +0.045 C 
BRANCH  15  16
ATOM     16  CD  ARG A   2     -60.476  -9.236 -25.686  0.00  0.00    +0.174 C 
BRANCH  16  17
ATOM     17  NE  ARG A   2     -61.678 -10.034 -25.480  0.00  0.00    -0.265 N 
ATOM     18  CZ  ARG A   2     -62.826  -9.563 -25.008  0.00  0.00    +0.342 C 
ATOM     19  NH2 ARG A   2     -62.939  -8.284 -24.660  0.00  0.00    -0.292 N 
ATOM     20 HH21 ARG A   2     -63.842  -7.923 -24.291  0.00  0.00    +0.255 HD
ATOM     21 HH22 ARG A   2     -62.124  -7.645 -24.757  0.00  0.00    +0.255 HD
ATOM     22  NH1 ARG A   2     -63.855 -10.389 -24.853  0.00  0.00    -0.292 N 
ATOM     23 HH11 ARG A   2     -64.759 -10.030 -24.484  0.00  0.00    +0.255 HD
ATOM     24 HH12 ARG A   2     -63.757 -11.394 -25.101  0.00  0.00    +0.255 HD
ATOM     25  HE  ARG A   2     -61.633 -11.045 -25.720  0.00  0.00    +0.259 HD
ENDBRANCH  16  17
ENDBRANCH  15  16
ENDBRANCH  14  15
ENDBRANCH   1  14
TORSDOF 10
REMARK  Name = ../refined-set-2016/4avj/4avj_pocket.pdb
REMARK  112 active torsions:
REMARK  status: ('A' for Active; 'I' for Inactive)
REMARK    1  A    between atoms: _1  and  _5
REMARK    2  A    between atoms: _5  and  _6
REMARK    3  A    between atoms: _5  and  _8
REMARK    4  A    between atoms: _8  and  _9
REMARK    5  A    between atoms: _15  and  _17
REMARK    6  A    between atoms: _17  and  _18
REMARK    7  A    between atoms: _22  and  _23
REMARK    8  A    between atoms: _28  and  _30
REMARK    9  A    between atoms: _30  and  _31
REMARK   10  A    between atoms: _30  and  _33
REMARK   11  A    between atoms: _33  and  _34
REMARK   12  A    between atoms: _37  and  _39
REMARK   13  A    between atoms: _39  and  _40
REMARK   14  A    between atoms: _42  and  _44
REMARK   15  A    between atoms: _44  and  _45
REMARK   16  A    between atoms: _47  and  _49
REMARK   17  A    between atoms: _60  and  _63
REMARK   18  A    between atoms: _63  and  _64
REMARK   19  A    between atoms: _71  and  _72
REMARK   20  A    between atoms: _78  and  _80
REMARK   21  A    between atoms: _80  and  _81
REMARK   22  A    between atoms: _80  and  _83
REMARK   23  A    between atoms: _83  and  _84
REMARK   24  A    between atoms: _89  and  _90
REMARK   25  A    between atoms: _93  and  _94
REMARK   26  A    between atoms: _99  and  _101
REMARK   27  A    between atoms: _101  and  _102
REMARK   28  A    between atoms: _101  and  _104
REMARK   29  A    between atoms: _104  and  _105
REMARK   30  A    between atoms: _105  and  _106
REMARK   31  A    between atoms: _109  and  _111
REMARK   32  A    between atoms: _111  and  _112
REMARK   33  A    between atoms: _111  and  _114
REMARK   34  A    between atoms: _114  and  _115
REMARK   35  A    between atoms: _118  and  _120
REMARK   36  A    between atoms: _120  and  _121
REMARK   37  A    between atoms: _120  and  _123
REMARK   38  A    between atoms: _123  and  _124
REMARK   39  A    between atoms: _127  and  _129
REMARK   40  A    between atoms: _129  and  _130
REMARK   41  A    between atoms: _129  and  _132
REMARK   42  A    between atoms: _132  and  _133
REMARK   43  A    between atoms: _136  and  _138
REMARK   44  A    between atoms: _138  and  _139
REMARK   45  A    between atoms: _138  and  _141
REMARK   46  A    between atoms: _141  and  _142
REMARK   47  A    between atoms: _145  and  _147
REMARK   48  A    between atoms: _147  and  _148
REMARK   49  A    between atoms: _147  and  _150
REMARK   50  A    between atoms: _150  and  _151
REMARK   51  A    between atoms: _156  and  _157
REMARK   52  A    between atoms: _159  and  _161
REMARK   53  A    between atoms: _161  and  _162
REMARK   54  A    between atoms: _161  and  _164
REMARK   55  A    between atoms: _164  and  _165
REMARK   56  A    between atoms: _170  and  _171
REMARK   57  A    between atoms: _173  and  _175
REMARK   58  A    between atoms: _175  and  _176
REMARK   59  A    between atoms: _175  and  _178
REMARK   60  A    between atoms: _178  and  _179
REMARK   61  A    between atoms: _181  and  _183
REMARK   62  A    between atoms: _183  and  _184
REMARK   63  A    between atoms: _183  and  _186
REMARK   64  A    between atoms: _186  and  _187
REMARK   65  A    between atoms: _187  and  _188
REMARK   66  A    between atoms: _188  and  _189
REMARK   67  A    between atoms: _198  and  _200
REMARK   68  A    between atoms: _200  and  _201
REMARK   69  A    between atoms: _200  and  _203
REMARK   70  A    between atoms: _203  and  _204
REMARK   71  A    between atoms: _204  and  _205
REMARK   72  A    between atoms: _210  and  _212
REMARK   73  A    between atoms: _212  and  _213
REMARK   74  A    between atoms: _212  and  _215
REMARK   75  A    between atoms: _215  and  _216
REMARK   76  A    between atoms: _219  and  _221
REMARK   77  A    between atoms: _221  and  _222
REMARK   78  A    between atoms: _221  and  _224
REMARK   79  A    between atoms: _224  and  _225
REMARK   80  A    between atoms: _230  and  _232
REMARK   81  A    between atoms: _232  and  _233
REMARK   82  A    between atoms: _232  and  _235
REMARK   83  A    between atoms: _235  and  _236
REMARK   84  A    between atoms: _241  and  _243
REMARK   85  A    between atoms: _243  and  _244
REMARK   86  A    between atoms: _243  and  _246
REMARK   87  A    between atoms: _246  and  _247
REMARK   88  A    between atoms: _252  and  _253
REMARK   89  A    between atoms: _255  and  _257
REMARK   90  A    between atoms: _257  and  _258
REMARK   91  A    between atoms: _257  and  _260
REMARK   92  A    between atoms: _260  and  _261
REMARK   93  A    between atoms: _266  and  _268
REMARK   94  A    between atoms: _268  and  _269
REMARK   95  A    between atoms: _268  and  _271
REMARK   96  A    between atoms: _271  and  _272
REMARK   97  A    between atoms: _274  and  _276
REMARK   98  A    between atoms: _276  and  _277
REMARK   99  A    between atoms: _276  and  _279
REMARK  100  A    between atoms: _279  and  _280
REMARK  101  A    between atoms: _283  and  _285
REMARK  102  A    between atoms: _285  and  _286
REMARK  103  A    between atoms: _285  and  _288
REMARK  104  A    between atoms: _288  and  _289
REMARK  105  A    between atoms: _292  and  _294
REMARK  106  A    between atoms: _294  and  _295
REMARK  107  A    between atoms: _294  and  _297
REMARK  108  A    between atoms: _297  and  _298
REMARK  109  A    between atoms: _304  and  _306
REMARK  110  A    between atoms: _306  and  _307
REMARK  111  A    between atoms: _306  and  _309
REMARK  112  A    between atoms: _309  and  _310
REMARK                            x       y       z     vdW  Elec       q    Type
REMARK                         _______ _______ _______ _____ _____    ______ ____
ROOT
ATOM      1  CA  TYR A   5     -65.442 -19.310 -13.958  0.00  0.00    +0.153 C 
ENDROOT
BRANCH   1   2
ATOM      2  C   TYR A   5     -65.920 -20.754 -14.136  0.00  0.00    +0.241 C 
ATOM      3  O   TYR A   5     -67.103 -21.053 -13.967  0.00  0.00    -0.273 OA
ATOM      4  N   ASN A   6     -64.997 -21.669 -14.404  0.00  0.00    -0.297 N 
ATOM      5  H   ASN A   6     -63.996 -21.395 -14.466  0.00  0.00    +0.150 HD
BRANCH   4   6
ATOM      6  CA  ASN A   6     -65.387 -23.059 -14.611  0.00  0.00    +0.158 C 
BRANCH   6   7
ATOM      7  C   ASN A   6     -64.268 -23.989 -14.147  0.00  0.00    +0.241 C 
ATOM      8  O   ASN A   6     -63.323 -23.563 -13.477  0.00  0.00    -0.273 OA
ATOM      9  N   SER A   7     -64.301 -25.238 -14.573  0.00  0.00    -0.295 N 
ATOM     10  H   SER A   7     -65.037 -25.552 -15.237  0.00  0.00    +0.150 HD
BRANCH   9  11
ATOM     11  CA  SER A   7     -63.297 -26.158 -14.099  0.00  0.00    +0.178 C 
BRANCH  11  12
ATOM     12  C   SER A   7     -61.986 -26.206 -14.916  0.00  0.00    +0.243 C 
ATOM     13  O   SER A   7     -61.123 -27.035 -14.629  0.00  0.00    -0.273 OA
ATOM     14  N   ASP A   8     -61.807 -25.317 -15.890  0.00  0.00    -0.296 N 
ATOM     15  H   ASP A   8     -62.537 -24.602 -16.083  0.00  0.00    +0.150 HD
BRANCH  14  16
ATOM     16  CA  ASP A   8     -60.577 -25.346 -16.693  0.00  0.00    +0.160 C 
BRANCH  16  17
ATOM     17  C   ASP A   8     -59.289 -25.374 -15.861  0.00  0.00    +0.241 C 
ATOM     18  O   ASP A   8     -59.073 -24.513 -14.999  0.00  0.00    -0.273 OA
ATOM     19  N   ASP A   9     -58.402 -26.319 -16.167  0.00  0.00    -0.297 N 
ATOM     20  H   ASP A   9     -58.636 -27.020 -16.899  0.00  0.00    +0.150 HD
BRANCH  19  21
ATOM     21  CA  ASP A   9     -57.122 -26.391 -15.504  0.00  0.00    +0.160 C 
BRANCH  21  22
ATOM     22  C   ASP A   9     -56.126 -26.885 -16.559  0.00  0.00    +0.241 C 
ATOM     23  O   ASP A   9     -56.061 -28.066 -16.827  0.00  0.00    -0.273 OA
ATOM     24  N   PHE A  10     -55.378 -25.969 -17.167  0.00  0.00    -0.298 N 
ATOM     25  H   PHE A  10     -55.340 -25.008 -16.771  0.00  0.00    +0.150 HD
BRANCH  24  26
ATOM     26  CA  PHE A  10     -54.607 -26.265 -18.373  0.00  0.00    +0.141 C 
BRANCH  26  27
ATOM     27  C   PHE A  10     -53.115 -25.992 -18.182  0.00  0.00    +0.227 C 
ATOM     28  O   PHE A  10     -52.718 -25.130 -17.409  0.00  0.00    -0.286 OA
ENDBRANCH  26  27
BRANCH  26  29
ATOM     29  CB  PHE A  10     -55.092 -25.419 -19.554  0.00  0.00    +0.054 C 
BRANCH  29  30
ATOM     30  CG  PHE A  10     -56.539 -25.661 -19.954  0.00  0.00    -0.020 A 
ATOM     31  CD2 PHE A  10     -57.398 -24.606 -20.150  0.00  0.00    -0.004 A 
ATOM     32  CE2 PHE A  10     -58.697 -24.807 -20.521  0.00  0.00    -0.000 A 
ATOM     33  CZ  PHE A  10     -59.161 -26.096 -20.742  0.00  0.00    -0.000 A 
ATOM     34  CE1 PHE A  10     -58.329 -27.139 -20.574  0.00  0.00    -0.000 A 
ATOM     35  CD1 PHE A  10     -57.004 -26.930 -20.193  0.00  0.00    -0.004 A 
ENDBRANCH  29  30
ENDBRANCH  26  29
ENDBRANCH  24  26
ENDBRANCH  21  22
BRANCH  21  36
ATOM     36  CB  ASP A   9     -57.222 -27.381 -14.337  0.00  0.00    +0.143 C 
BRANCH  36  37
ATOM     37  CG  ASP A   9     -56.041 -27.303 -13.377  0.00  0.00    +0.367 C 
ATOM     38  OD2 ASP A   9     -56.265 -27.623 -12.192  0.00  0.00    -0.246 OA
ATOM     39  OD1 ASP A   9     -54.912 -26.894 -13.769  0.00  0.00    -0.246 OA
ENDBRANCH  36  37
ENDBRANCH  21  36
ENDBRANCH  19  21
ENDBRANCH  16  17
BRANCH  16  40
ATOM     40  CB  ASP A   8     -60.498 -24.127 -17.605  0.00  0.00    +0.143 C 
BRANCH  40  41
ATOM     41  CG  ASP A   8     -61.540 -24.153 -18.743  0.00  0.00    +0.367 C 
ATOM     42  OD2 ASP A   8     -62.211 -25.194 -18.943  0.00  0.00    -0.246 OA
ATOM     43  OD1 ASP A   8     -61.701 -23.094 -19.402  0.00  0.00    -0.246 OA
ENDBRANCH  40  41
ENDBRANCH  16  40
ENDBRANCH  14  16
ENDBRANCH  11  12
BRANCH  11  44
ATOM     44  CB  SER A   7     -63.900 -27.567 -14.014  0.00  0.00    +0.166 C 
BRANCH  44  45
ATOM     45  OG  SER A   7     -64.159 -28.069 -15.301  0.00  0.00    -0.380 OA
ATOM     46  H   SER A   7     -64.547 -28.977 -15.228  0.00  0.00    +0.211 HD
ENDBRANCH  44  45
ENDBRANCH  11  44
ENDBRANCH   9  11
ENDBRANCH   6   7
BRANCH   6  47
ATOM     47  CB  ASN A   6     -65.749 -23.302 -16.098  0.00  0.00    +0.114 C 
BRANCH  47  48
ATOM     48  CG  ASN A   6     -64.569 -23.058 -17.044  0.00  0.00    +0.222 C 
ATOM     49  OD1 ASN A   6     -63.417 -23.087 -16.629  0.00  0.00    -0.275 OA
ATOM     50  ND2 ASN A   6     -64.860 -22.877 -18.329  0.00  0.00    -0.329 N 
ATOM     51 HD21 ASN A   6     -65.852 -22.859 -18.640  0.00  0.00    +0.145 HD
ATOM     52 HD22 ASN A   6     -64.095 -22.754 -19.023  0.00  0.00    +0.145 HD
ENDBRANCH  47  48
ENDBRANCH   6  47
ENDBRANCH   4   6
ENDBRANCH   1   2
BRANCH   1  55
ATOM     53  C   ASN A   4     -64.149 -18.284 -12.186  0.00  0.00    +0.241 C 
ATOM     54  O   ASN A   4     -65.106 -17.649 -11.805  0.00  0.00    -0.273 OA
ATOM     55  N   TYR A   5     -64.243 -19.199 -13.139  0.00  0.00    -0.297 N 
ATOM     56  H   TYR A   5     -63.448 -19.849 -13.305  0.00  0.00    +0.150 HD
BRANCH  53  57
ATOM     57  CA  ASN A   4     -62.789 -18.076 -11.541  0.00  0.00    +0.158 C 
BRANCH  57  60
ATOM     58  C   ASN A   3     -60.896 -19.234 -12.568  0.00  0.00    +0.241 C 
ATOM     59  O   ASN A   3     -61.032 -20.186 -11.823  0.00  0.00    -0.273 OA
ATOM     60  N   ASN A   4     -61.696 -18.181 -12.517  0.00  0.00    -0.297 N 
ATOM     61  H   ASN A   4     -61.546 -17.402 -13.190  0.00  0.00    +0.150 HD
BRANCH  58  62
ATOM     62  CA  ASN A   3     -59.855 -19.253 -13.698  0.00  0.00    +0.158 C 
BRANCH  62  64
ATOM     63  C   THR A   2     -57.777 -20.448 -14.183  0.00  0.00    +0.243 C 
ATOM     64  N   ASN A   3     -59.028 -20.460 -13.701  0.00  0.00    -0.297 N 
ATOM     65  H   ASN A   3     -59.419 -21.346 -13.321  0.00  0.00    +0.150 HD
ATOM     66  O   THR A   2     -57.237 -19.428 -14.652  0.00  0.00    -0.273 OA
BRANCH  63  67
ATOM     67  CA  THR A   2     -57.025 -21.761 -14.154  0.00  0.00    +0.176 C 
BRANCH  67  69
ATOM     68  C   GLN A   1     -55.055 -22.290 -15.482  0.00  0.00    +0.238 C 
ATOM     69  N   THR A   2     -55.651 -21.536 -14.585  0.00  0.00    -0.295 N 
ATOM     70  H   THR A   2     -55.120 -20.746 -14.166  0.00  0.00    +0.150 HD
ATOM     71  O   GLN A   1     -55.536 -23.351 -15.920  0.00  0.00    -0.274 OA
BRANCH  68  72
ATOM     72  CA  GLN A   1     -53.723 -21.788 -15.948  0.00  0.00    +0.145 C 
BRANCH  72  73
ATOM     73  N   GLN A   1     -52.684 -22.819 -15.842  0.00  0.00    -0.238 NA
ATOM     74  H   GLN A   1     -52.813 -23.724 -16.338  0.00  0.00    +0.142 HD
ENDBRANCH  72  73
BRANCH  72  75
ATOM     75  CB  GLN A   1     -53.864 -21.311 -17.407  0.00  0.00    +0.036 C 
BRANCH  75  76
ATOM     76  CG  GLN A   1     -55.010 -20.270 -17.625  0.00  0.00    +0.087 C 
BRANCH  76  77
ATOM     77  CD  GLN A   1     -56.221 -20.797 -18.418  0.00  0.00    +0.219 C 
ATOM     78  NE2 GLN A   1     -57.427 -20.297 -18.085  0.00  0.00    -0.329 N 
ATOM     79 HE21 GLN A   1     -57.512 -19.626 -17.295  0.00  0.00    +0.145 HD
ATOM     80 HE22 GLN A   1     -58.273 -20.582 -18.618  0.00  0.00    +0.145 HD
ATOM     81  OE1 GLN A   1     -56.069 -21.595 -19.346  0.00  0.00    -0.275 OA
ENDBRANCH  76  77
ENDBRANCH  75  76
ENDBRANCH  72  75
ENDBRANCH  68  72
ENDBRANCH  67  69
BRANCH  67  82
ATOM     82  CB  THR A   2     -57.066 -22.305 -12.727  0.00  0.00    +0.137 C 
ATOM     83  CG2 THR A   2     -56.337 -23.635 -12.636  0.00  0.00    +0.034 C 
BRANCH  82  84
ATOM     84  OG1 THR A   2     -56.398 -21.370 -11.875  0.00  0.00    -0.382 OA
ATOM     85  HG1 THR A   2     -56.414 -21.705 -10.943  0.00  0.00    +0.210 HD
ENDBRANCH  82  84
ENDBRANCH  67  82
ENDBRANCH  63  67
ENDBRANCH  62  64
BRANCH  62  86
ATOM     86  CB  ASN A   3     -60.547 -19.091 -15.061  0.00  0.00    +0.114 C 
BRANCH  86  87
ATOM     87  CG  ASN A   3     -61.516 -20.231 -15.371  0.00  0.00    +0.222 C 
ATOM     88  OD1 ASN A   3     -62.252 -20.705 -14.503  0.00  0.00    -0.275 OA
ATOM     89  ND2 ASN A   3     -61.529 -20.661 -16.619  0.00  0.00    -0.329 N 
ATOM     90 HD21 ASN A   3     -62.176 -21.426 -16.899  0.00  0.00    +0.145 HD
ATOM     91 HD22 ASN A   3     -60.892 -20.235 -17.322  0.00  0.00    +0.145 HD
ENDBRANCH  86  87
ENDBRANCH  62  86
ENDBRANCH  58  62
ENDBRANCH  57  60
BRANCH  57  92
ATOM     92  CB  ASN A   4     -62.767 -16.705 -10.878  0.00  0.00    +0.114 C 
BRANCH  92  93
ATOM     93  CG  ASN A   4     -63.219 -15.593 -11.845  0.00  0.00    +0.222 C 
ATOM     94  ND2 ASN A   4     -63.535 -14.438 -11.320  0.00  0.00    -0.329 N 
ATOM     95 HD21 ASN A   4     -63.471 -14.299 -10.291  0.00  0.00    +0.145 HD
ATOM     96 HD22 ASN A   4     -63.851 -13.658 -11.931  0.00  0.00    +0.145 HD
ATOM     97  OD1 ASN A   4     -63.280 -15.801 -13.054  0.00  0.00    -0.275 OA
ENDBRANCH  92  93
ENDBRANCH  57  92
ENDBRANCH  53  57
ENDBRANCH   1  55
BRANCH   1  98
ATOM     98  CB  TYR A   5     -65.183 -18.664 -15.320  0.00  0.00    +0.055 C 
BRANCH  98  99
ATOM     99  CG  TYR A   5     -66.321 -18.799 -16.322  0.00  0.00    -0.020 A 
ATOM    100  CD2 TYR A   5     -67.418 -17.955 -16.248  0.00  0.00    -0.001 A 
ATOM    101  CE2 TYR A   5     -68.453 -18.054 -17.144  0.00  0.00    +0.036 A 
ATOM    102  CZ  TYR A   5     -68.399 -18.992 -18.141  0.00  0.00    +0.134 A 
ATOM    103  CE1 TYR A   5     -67.307 -19.839 -18.254  0.00  0.00    +0.036 A 
ATOM    104  CD1 TYR A   5     -66.275 -19.729 -17.354  0.00  0.00    -0.001 A 
BRANCH 102 105
ATOM    105  OH  TYR A   5     -69.447 -19.054 -19.021  0.00  0.00    -0.506 OA
ATOM    106  HH  TYR A   5     -70.123 -18.374 -18.775  0.00  0.00    +0.292 HD
ENDBRANCH 102 105
ENDBRANCH  98  99
ENDBRANCH   1  98
TORSDOF 42
REMARK  Name = ../refined-set-2016/4avj/4avj_pocket.pdb
REMARK  112 active torsions:
REMARK  status: ('A' for Active; 'I' for Inactive)
REMARK    1  A    between atoms: _1  and  _5
REMARK    2  A    between atoms: _5  and  _6
REMARK    3  A    between atoms: _5  and  _8
REMARK    4  A    between atoms: _8  and  _9
REMARK    5  A    between atoms: _15  and  _17
REMARK    6  A    between atoms: _17  and  _18
REMARK    7  A    between atoms: _22  and  _23
REMARK    8  A    between atoms: _28  and  _30
REMARK    9  A    between atoms: _30  and  _31
REMARK   10  A    between atoms: _30  and  _33
REMARK   11  A    between atoms: _33  and  _34
REMARK   12  A    between atoms: _37  and  _39
REMARK   13  A    between atoms: _39  and  _40
REMARK   14  A    between atoms: _42  and  _44
REMARK   15  A    between atoms: _44  and  _45
REMARK   16  A    between atoms: _47  and  _49
REMARK   17  A    between atoms: _60  and  _63
REMARK   18  A    between atoms: _63  and  _64
REMARK   19  A    between atoms: _71  and  _72
REMARK   20  A    between atoms: _78  and  _80
REMARK   21  A    between atoms: _80  and  _81
REMARK   22  A    between atoms: _80  and  _83
REMARK   23  A    between atoms: _83  and  _84
REMARK   24  A    between atoms: _89  and  _90
REMARK   25  A    between atoms: _93  and  _94
REMARK   26  A    between atoms: _99  and  _101
REMARK   27  A    between atoms: _101  and  _102
REMARK   28  A    between atoms: _101  and  _104
REMARK   29  A    between atoms: _104  and  _105
REMARK   30  A    between atoms: _105  and  _106
REMARK   31  A    between atoms: _109  and  _111
REMARK   32  A    between atoms: _111  and  _112
REMARK   33  A    between atoms: _111  and  _114
REMARK   34  A    between atoms: _114  and  _115
REMARK   35  A    between atoms: _118  and  _120
REMARK   36  A    between atoms: _120  and  _121
REMARK   37  A    between atoms: _120  and  _123
REMARK   38  A    between atoms: _123  and  _124
REMARK   39  A    between atoms: _127  and  _129
REMARK   40  A    between atoms: _129  and  _130
REMARK   41  A    between atoms: _129  and  _132
REMARK   42  A    between atoms: _132  and  _133
REMARK   43  A    between atoms: _136  and  _138
REMARK   44  A    between atoms: _138  and  _139
REMARK   45  A    between atoms: _138  and  _141
REMARK   46  A    between atoms: _141  and  _142
REMARK   47  A    between atoms: _145  and  _147
REMARK   48  A    between atoms: _147  and  _148
REMARK   49  A    between atoms: _147  and  _150
REMARK   50  A    between atoms: _150  and  _151
REMARK   51  A    between atoms: _156  and  _157
REMARK   52  A    between atoms: _159  and  _161
REMARK   53  A    between atoms: _161  and  _162
REMARK   54  A    between atoms: _161  and  _164
REMARK   55  A    between atoms: _164  and  _165
REMARK   56  A    between atoms: _170  and  _171
REMARK   57  A    between atoms: _173  and  _175
REMARK   58  A    between atoms: _175  and  _176
REMARK   59  A    between atoms: _175  and  _178
REMARK   60  A    between atoms: _178  and  _179
REMARK   61  A    between atoms: _181  and  _183
REMARK   62  A    between atoms: _183  and  _184
REMARK   63  A    between atoms: _183  and  _186
REMARK   64  A    between atoms: _186  and  _187
REMARK   65  A    between atoms: _187  and  _188
REMARK   66  A    between atoms: _188  and  _189
REMARK   67  A    between atoms: _198  and  _200
REMARK   68  A    between atoms: _200  and  _201
REMARK   69  A    between atoms: _200  and  _203
REMARK   70  A    between atoms: _203  and  _204
REMARK   71  A    between atoms: _204  and  _205
REMARK   72  A    between atoms: _210  and  _212
REMARK   73  A    between atoms: _212  and  _213
REMARK   74  A    between atoms: _212  and  _215
REMARK   75  A    between atoms: _215  and  _216
REMARK   76  A    between atoms: _219  and  _221
REMARK   77  A    between atoms: _221  and  _222
REMARK   78  A    between atoms: _221  and  _224
REMARK   79  A    between atoms: _224  and  _225
REMARK   80  A    between atoms: _230  and  _232
REMARK   81  A    between atoms: _232  and  _233
REMARK   82  A    between atoms: _232  and  _235
REMARK   83  A    between atoms: _235  and  _236
REMARK   84  A    between atoms: _241  and  _243
REMARK   85  A    between atoms: _243  and  _244
REMARK   86  A    between atoms: _243  and  _246
REMARK   87  A    between atoms: _246  and  _247
REMARK   88  A    between atoms: _252  and  _253
REMARK   89  A    between atoms: _255  and  _257
REMARK   90  A    between atoms: _257  and  _258
REMARK   91  A    between atoms: _257  and  _260
REMARK   92  A    between atoms: _260  and  _261
REMARK   93  A    between atoms: _266  and  _268
REMARK   94  A    between atoms: _268  and  _269
REMARK   95  A    between atoms: _268  and  _271
REMARK   96  A    between atoms: _271  and  _272
REMARK   97  A    between atoms: _274  and  _276
REMARK   98  A    between atoms: _276  and  _277
REMARK   99  A    between atoms: _276  and  _279
REMARK  100  A    between atoms: _279  and  _280
REMARK  101  A    between atoms: _283  and  _285
REMARK  102  A    between atoms: _285  and  _286
REMARK  103  A    between atoms: _285  and  _288
REMARK  104  A    between atoms: _288  and  _289
REMARK  105  A    between atoms: _292  and  _294
REMARK  106  A    between atoms: _294  and  _295
REMARK  107  A    between atoms: _294  and  _297
REMARK  108  A    between atoms: _297  and  _298
REMARK  109  A    between atoms: _304  and  _306
REMARK  110  A    between atoms: _306  and  _307
REMARK  111  A    between atoms: _306  and  _309
REMARK  112  A    between atoms: _309  and  _310
REMARK                            x       y       z     vdW  Elec       q    Type
REMARK                         _______ _______ _______ _____ _____    ______ ____
ROOT
ATOM      1  CB  PHE A   1     -49.035 -23.122 -21.395  0.00  0.00    +0.051 C 
ENDROOT
BRANCH   1   2
ATOM      2  CG  PHE A   1     -50.461 -22.805 -21.767  0.00  0.00    -0.020 A 
ATOM      3  CD2 PHE A   1     -51.510 -23.024 -20.864  0.00  0.00    -0.004 A 
ATOM      4  CE2 PHE A   1     -52.816 -22.704 -21.210  0.00  0.00    -0.000 A 
ATOM      5  CZ  PHE A   1     -53.078 -22.172 -22.465  0.00  0.00    -0.000 A 
ATOM      6  CE1 PHE A   1     -52.030 -21.948 -23.350  0.00  0.00    -0.000 A 
ATOM      7  CD1 PHE A   1     -50.748 -22.249 -22.999  0.00  0.00    -0.004 A 
ENDBRANCH   1   2
BRANCH   1   8
ATOM      8  CA  PHE A   1     -48.755 -24.622 -21.264  0.00  0.00    +0.137 C 
BRANCH   8   9
ATOM      9  N   PHE A   1     -49.465 -25.154 -20.112  0.00  0.00    -0.239 NA
ATOM     10  H   PHE A   1     -49.259 -24.742 -19.179  0.00  0.00    +0.142 HD
ENDBRANCH   8   9
BRANCH   8  11
ATOM     11  C   PHE A   1     -47.266 -24.906 -21.006  0.00  0.00    +0.224 C 
ATOM     12  O   PHE A   1     -46.654 -24.339 -20.109  0.00  0.00    -0.287 OA
ENDBRANCH   8  11
ENDBRANCH   1   8
TORSDOF 4
REMARK  Name = ../refined-set-2016/4avj/4avj_pocket.pdb
REMARK  112 active torsions:
REMARK  status: ('A' for Active; 'I' for Inactive)
REMARK    1  A    between atoms: _1  and  _5
REMARK    2  A    between atoms: _5  and  _6
REMARK    3  A    between atoms: _5  and  _8
REMARK    4  A    between atoms: _8  and  _9
REMARK    5  A    between atoms: _15  and  _17
REMARK    6  A    between atoms: _17  and  _18
REMARK    7  A    between atoms: _22  and  _23
REMARK    8  A    between atoms: _28  and  _30
REMARK    9  A    between atoms: _30  and  _31
REMARK   10  A    between atoms: _30  and  _33
REMARK   11  A    between atoms: _33  and  _34
REMARK   12  A    between atoms: _37  and  _39
REMARK   13  A    between atoms: _39  and  _40
REMARK   14  A    between atoms: _42  and  _44
REMARK   15  A    between atoms: _44  and  _45
REMARK   16  A    between atoms: _47  and  _49
REMARK   17  A    between atoms: _60  and  _63
REMARK   18  A    between atoms: _63  and  _64
REMARK   19  A    between atoms: _71  and  _72
REMARK   20  A    between atoms: _78  and  _80
REMARK   21  A    between atoms: _80  and  _81
REMARK   22  A    between atoms: _80  and  _83
REMARK   23  A    between atoms: _83  and  _84
REMARK   24  A    between atoms: _89  and  _90
REMARK   25  A    between atoms: _93  and  _94
REMARK   26  A    between atoms: _99  and  _101
REMARK   27  A    between atoms: _101  and  _102
REMARK   28  A    between atoms: _101  and  _104
REMARK   29  A    between atoms: _104  and  _105
REMARK   30  A    between atoms: _105  and  _106
REMARK   31  A    between atoms: _109  and  _111
REMARK   32  A    between atoms: _111  and  _112
REMARK   33  A    between atoms: _111  and  _114
REMARK   34  A    between atoms: _114  and  _115
REMARK   35  A    between atoms: _118  and  _120
REMARK   36  A    between atoms: _120  and  _121
REMARK   37  A    between atoms: _120  and  _123
REMARK   38  A    between atoms: _123  and  _124
REMARK   39  A    between atoms: _127  and  _129
REMARK   40  A    between atoms: _129  and  _130
REMARK   41  A    between atoms: _129  and  _132
REMARK   42  A    between atoms: _132  and  _133
REMARK   43  A    between atoms: _136  and  _138
REMARK   44  A    between atoms: _138  and  _139
REMARK   45  A    between atoms: _138  and  _141
REMARK   46  A    between atoms: _141  and  _142
REMARK   47  A    between atoms: _145  and  _147
REMARK   48  A    between atoms: _147  and  _148
REMARK   49  A    between atoms: _147  and  _150
REMARK   50  A    between atoms: _150  and  _151
REMARK   51  A    between atoms: _156  and  _157
REMARK   52  A    between atoms: _159  and  _161
REMARK   53  A    between atoms: _161  and  _162
REMARK   54  A    between atoms: _161  and  _164
REMARK   55  A    between atoms: _164  and  _165
REMARK   56  A    between atoms: _170  and  _171
REMARK   57  A    between atoms: _173  and  _175
REMARK   58  A    between atoms: _175  and  _176
REMARK   59  A    between atoms: _175  and  _178
REMARK   60  A    between atoms: _178  and  _179
REMARK   61  A    between atoms: _181  and  _183
REMARK   62  A    between atoms: _183  and  _184
REMARK   63  A    between atoms: _183  and  _186
REMARK   64  A    between atoms: _186  and  _187
REMARK   65  A    between atoms: _187  and  _188
REMARK   66  A    between atoms: _188  and  _189
REMARK   67  A    between atoms: _198  and  _200
REMARK   68  A    between atoms: _200  and  _201
REMARK   69  A    between atoms: _200  and  _203
REMARK   70  A    between atoms: _203  and  _204
REMARK   71  A    between atoms: _204  and  _205
REMARK   72  A    between atoms: _210  and  _212
REMARK   73  A    between atoms: _212  and  _213
REMARK   74  A    between atoms: _212  and  _215
REMARK   75  A    between atoms: _215  and  _216
REMARK   76  A    between atoms: _219  and  _221
REMARK   77  A    between atoms: _221  and  _222
REMARK   78  A    between atoms: _221  and  _224
REMARK   79  A    between atoms: _224  and  _225
REMARK   80  A    between atoms: _230  and  _232
REMARK   81  A    between atoms: _232  and  _233
REMARK   82  A    between atoms: _232  and  _235
REMARK   83  A    between atoms: _235  and  _236
REMARK   84  A    between atoms: _241  and  _243
REMARK   85  A    between atoms: _243  and  _244
REMARK   86  A    between atoms: _243  and  _246
REMARK   87  A    between atoms: _246  and  _247
REMARK   88  A    between atoms: _252  and  _253
REMARK   89  A    between atoms: _255  and  _257
REMARK   90  A    between atoms: _257  and  _258
REMARK   91  A    between atoms: _257  and  _260
REMARK   92  A    between atoms: _260  and  _261
REMARK   93  A    between atoms: _266  and  _268
REMARK   94  A    between atoms: _268  and  _269
REMARK   95  A    between atoms: _268  and  _271
REMARK   96  A    between atoms: _271  and  _272
REMARK   97  A    between atoms: _274  and  _276
REMARK   98  A    between atoms: _276  and  _277
REMARK   99  A    between atoms: _276  and  _279
REMARK  100  A    between atoms: _279  and  _280
REMARK  101  A    between atoms: _283  and  _285
REMARK  102  A    between atoms: _285  and  _286
REMARK  103  A    between atoms: _285  and  _288
REMARK  104  A    between atoms: _288  and  _289
REMARK  105  A    between atoms: _292  and  _294
REMARK  106  A    between atoms: _294  and  _295
REMARK  107  A    between atoms: _294  and  _297
REMARK  108  A    between atoms: _297  and  _298
REMARK  109  A    between atoms: _304  and  _306
REMARK  110  A    between atoms: _306  and  _307
REMARK  111  A    between atoms: _306  and  _309
REMARK  112  A    between atoms: _309  and  _310
REMARK                            x       y       z     vdW  Elec       q    Type
REMARK                         _______ _______ _______ _____ _____    ______ ____
ROOT
ATOM      1  O   HOH     1     -56.797 -21.833 -21.959  0.00  0.00    +0.000 OA
ENDROOT
TORSDOF 0
REMARK  Name = ../refined-set-2016/4avj/4avj_pocket.pdb
REMARK  112 active torsions:
REMARK  status: ('A' for Active; 'I' for Inactive)
REMARK    1  A    between atoms: _1  and  _5
REMARK    2  A    between atoms: _5  and  _6
REMARK    3  A    between atoms: _5  and  _8
REMARK    4  A    between atoms: _8  and  _9
REMARK    5  A    between atoms: _15  and  _17
REMARK    6  A    between atoms: _17  and  _18
REMARK    7  A    between atoms: _22  and  _23
REMARK    8  A    between atoms: _28  and  _30
REMARK    9  A    between atoms: _30  and  _31
REMARK   10  A    between atoms: _30  and  _33
REMARK   11  A    between atoms: _33  and  _34
REMARK   12  A    between atoms: _37  and  _39
REMARK   13  A    between atoms: _39  and  _40
REMARK   14  A    between atoms: _42  and  _44
REMARK   15  A    between atoms: _44  and  _45
REMARK   16  A    between atoms: _47  and  _49
REMARK   17  A    between atoms: _60  and  _63
REMARK   18  A    between atoms: _63  and  _64
REMARK   19  A    between atoms: _71  and  _72
REMARK   20  A    between atoms: _78  and  _80
REMARK   21  A    between atoms: _80  and  _81
REMARK   22  A    between atoms: _80  and  _83
REMARK   23  A    between atoms: _83  and  _84
REMARK   24  A    between atoms: _89  and  _90
REMARK   25  A    between atoms: _93  and  _94
REMARK   26  A    between atoms: _99  and  _101
REMARK   27  A    between atoms: _101  and  _102
REMARK   28  A    between atoms: _101  and  _104
REMARK   29  A    between atoms: _104  and  _105
REMARK   30  A    between atoms: _105  and  _106
REMARK   31  A    between atoms: _109  and  _111
REMARK   32  A    between atoms: _111  and  _112
REMARK   33  A    between atoms: _111  and  _114
REMARK   34  A    between atoms: _114  and  _115
REMARK   35  A    between atoms: _118  and  _120
REMARK   36  A    between atoms: _120  and  _121
REMARK   37  A    between atoms: _120  and  _123
REMARK   38  A    between atoms: _123  and  _124
REMARK   39  A    between atoms: _127  and  _129
REMARK   40  A    between atoms: _129  and  _130
REMARK   41  A    between atoms: _129  and  _132
REMARK   42  A    between atoms: _132  and  _133
REMARK   43  A    between atoms: _136  and  _138
REMARK   44  A    between atoms: _138  and  _139
REMARK   45  A    between atoms: _138  and  _141
REMARK   46  A    between atoms: _141  and  _142
REMARK   47  A    between atoms: _145  and  _147
REMARK   48  A    between atoms: _147  and  _148
REMARK   49  A    between atoms: _147  and  _150
REMARK   50  A    between atoms: _150  and  _151
REMARK   51  A    between atoms: _156  and  _157
REMARK   52  A    between atoms: _159  and  _161
REMARK   53  A    between atoms: _161  and  _162
REMARK   54  A    between atoms: _161  and  _164
REMARK   55  A    between atoms: _164  and  _165
REMARK   56  A    between atoms: _170  and  _171
REMARK   57  A    between atoms: _173  and  _175
REMARK   58  A    between atoms: _175  and  _176
REMARK   59  A    between atoms: _175  and  _178
REMARK   60  A    between atoms: _178  and  _179
REMARK   61  A    between atoms: _181  and  _183
REMARK   62  A    between atoms: _183  and  _184
REMARK   63  A    between atoms: _183  and  _186
REMARK   64  A    between atoms: _186  and  _187
REMARK   65  A    between atoms: _187  and  _188
REMARK   66  A    between atoms: _188  and  _189
REMARK   67  A    between atoms: _198  and  _200
REMARK   68  A    between atoms: _200  and  _201
REMARK   69  A    between atoms: _200  and  _203
REMARK   70  A    between atoms: _203  and  _204
REMARK   71  A    between atoms: _204  and  _205
REMARK   72  A    between atoms: _210  and  _212
REMARK   73  A    between atoms: _212  and  _213
REMARK   74  A    between atoms: _212  and  _215
REMARK   75  A    between atoms: _215  and  _216
REMARK   76  A    between atoms: _219  and  _221
REMARK   77  A    between atoms: _221  and  _222
REMARK   78  A    between atoms: _221  and  _224
REMARK   79  A    between atoms: _224  and  _225
REMARK   80  A    between atoms: _230  and  _232
REMARK   81  A    between atoms: _232  and  _233
REMARK   82  A    between atoms: _232  and  _235
REMARK   83  A    between atoms: _235  and  _236
REMARK   84  A    between atoms: _241  and  _243
REMARK   85  A    between atoms: _243  and  _244
REMARK   86  A    between atoms: _243  and  _246
REMARK   87  A    between atoms: _246  and  _247
REMARK   88  A    between atoms: _252  and  _253
REMARK   89  A    between atoms: _255  and  _257
REMARK   90  A    between atoms: _257  and  _258
REMARK   91  A    between atoms: _257  and  _260
REMARK   92  A    between atoms: _260  and  _261
REMARK   93  A    between atoms: _266  and  _268
REMARK   94  A    between atoms: _268  and  _269
REMARK   95  A    between atoms: _268  and  _271
REMARK   96  A    between atoms: _271  and  _272
REMARK   97  A    between atoms: _274  and  _276
REMARK   98  A    between atoms: _276  and  _277
REMARK   99  A    between atoms: _276  and  _279
REMARK  100  A    between atoms: _279  and  _280
REMARK  101  A    between atoms: _283  and  _285
REMARK  102  A    between atoms: _285  and  _286
REMARK  103  A    between atoms: _285  and  _288
REMARK  104  A    between atoms: _288  and  _289
REMARK  105  A    between atoms: _292  and  _294
REMARK  106  A    between atoms: _294  and  _295
REMARK  107  A    between atoms: _294  and  _297
REMARK  108  A    between atoms: _297  and  _298
REMARK  109  A    between atoms: _304  and  _306
REMARK  110  A    between atoms: _306  and  _307
REMARK  111  A    between atoms: _306  and  _309
REMARK  112  A    between atoms: _309  and  _310
REMARK                            x       y       z     vdW  Elec       q    Type
REMARK                         _______ _______ _______ _____ _____    ______ ____
ROOT
ATOM      1  O   HOH     1     -56.786 -20.303 -29.326  0.00  0.00    +0.000 OA
ENDROOT
TORSDOF 0
REMARK  Name = ../refined-set-2016/4avj/4avj_pocket.pdb
REMARK  112 active torsions:
REMARK  status: ('A' for Active; 'I' for Inactive)
REMARK    1  A    between atoms: _1  and  _5
REMARK    2  A    between atoms: _5  and  _6
REMARK    3  A    between atoms: _5  and  _8
REMARK    4  A    between atoms: _8  and  _9
REMARK    5  A    between atoms: _15  and  _17
REMARK    6  A    between atoms: _17  and  _18
REMARK    7  A    between atoms: _22  and  _23
REMARK    8  A    between atoms: _28  and  _30
REMARK    9  A    between atoms: _30  and  _31
REMARK   10  A    between atoms: _30  and  _33
REMARK   11  A    between atoms: _33  and  _34
REMARK   12  A    between atoms: _37  and  _39
REMARK   13  A    between atoms: _39  and  _40
REMARK   14  A    between atoms: _42  and  _44
REMARK   15  A    between atoms: _44  and  _45
REMARK   16  A    between atoms: _47  and  _49
REMARK   17  A    between atoms: _60  and  _63
REMARK   18  A    between atoms: _63  and  _64
REMARK   19  A    between atoms: _71  and  _72
REMARK   20  A    between atoms: _78  and  _80
REMARK   21  A    between atoms: _80  and  _81
REMARK   22  A    between atoms: _80  and  _83
REMARK   23  A    between atoms: _83  and  _84
REMARK   24  A    between atoms: _89  and  _90
REMARK   25  A    between atoms: _93  and  _94
REMARK   26  A    between atoms: _99  and  _101
REMARK   27  A    between atoms: _101  and  _102
REMARK   28  A    between atoms: _101  and  _104
REMARK   29  A    between atoms: _104  and  _105
REMARK   30  A    between atoms: _105  and  _106
REMARK   31  A    between atoms: _109  and  _111
REMARK   32  A    between atoms: _111  and  _112
REMARK   33  A    between atoms: _111  and  _114
REMARK   34  A    between atoms: _114  and  _115
REMARK   35  A    between atoms: _118  and  _120
REMARK   36  A    between atoms: _120  and  _121
REMARK   37  A    between atoms: _120  and  _123
REMARK   38  A    between atoms: _123  and  _124
REMARK   39  A    between atoms: _127  and  _129
REMARK   40  A    between atoms: _129  and  _130
REMARK   41  A    between atoms: _129  and  _132
REMARK   42  A    between atoms: _132  and  _133
REMARK   43  A    between atoms: _136  and  _138
REMARK   44  A    between atoms: _138  and  _139
REMARK   45  A    between atoms: _138  and  _141
REMARK   46  A    between atoms: _141  and  _142
REMARK   47  A    between atoms: _145  and  _147
REMARK   48  A    between atoms: _147  and  _148
REMARK   49  A    between atoms: _147  and  _150
REMARK   50  A    between atoms: _150  and  _151
REMARK   51  A    between atoms: _156  and  _157
REMARK   52  A    between atoms: _159  and  _161
REMARK   53  A    between atoms: _161  and  _162
REMARK   54  A    between atoms: _161  and  _164
REMARK   55  A    between atoms: _164  and  _165
REMARK   56  A    between atoms: _170  and  _171
REMARK   57  A    between atoms: _173  and  _175
REMARK   58  A    between atoms: _175  and  _176
REMARK   59  A    between atoms: _175  and  _178
REMARK   60  A    between atoms: _178  and  _179
REMARK   61  A    between atoms: _181  and  _183
REMARK   62  A    between atoms: _183  and  _184
REMARK   63  A    between atoms: _183  and  _186
REMARK   64  A    between atoms: _186  and  _187
REMARK   65  A    between atoms: _187  and  _188
REMARK   66  A    between atoms: _188  and  _189
REMARK   67  A    between atoms: _198  and  _200
REMARK   68  A    between atoms: _200  and  _201
REMARK   69  A    between atoms: _200  and  _203
REMARK   70  A    between atoms: _203  and  _204
REMARK   71  A    between atoms: _204  and  _205
REMARK   72  A    between atoms: _210  and  _212
REMARK   73  A    between atoms: _212  and  _213
REMARK   74  A    between atoms: _212  and  _215
REMARK   75  A    between atoms: _215  and  _216
REMARK   76  A    between atoms: _219  and  _221
REMARK   77  A    between atoms: _221  and  _222
REMARK   78  A    between atoms: _221  and  _224
REMARK   79  A    between atoms: _224  and  _225
REMARK   80  A    between atoms: _230  and  _232
REMARK   81  A    between atoms: _232  and  _233
REMARK   82  A    between atoms: _232  and  _235
REMARK   83  A    between atoms: _235  and  _236
REMARK   84  A    between atoms: _241  and  _243
REMARK   85  A    between atoms: _243  and  _244
REMARK   86  A    between atoms: _243  and  _246
REMARK   87  A    between atoms: _246  and  _247
REMARK   88  A    between atoms: _252  and  _253
REMARK   89  A    between atoms: _255  and  _257
REMARK   90  A    between atoms: _257  and  _258
REMARK   91  A    between atoms: _257  and  _260
REMARK   92  A    between atoms: _260  and  _261
REMARK   93  A    between atoms: _266  and  _268
REMARK   94  A    between atoms: _268  and  _269
REMARK   95  A    between atoms: _268  and  _271
REMARK   96  A    between atoms: _271  and  _272
REMARK   97  A    between atoms: _274  and  _276
REMARK   98  A    between atoms: _276  and  _277
REMARK   99  A    between atoms: _276  and  _279
REMARK  100  A    between atoms: _279  and  _280
REMARK  101  A    between atoms: _283  and  _285
REMARK  102  A    between atoms: _285  and  _286
REMARK  103  A    between atoms: _285  and  _288
REMARK  104  A    between atoms: _288  and  _289
REMARK  105  A    between atoms: _292  and  _294
REMARK  106  A    between atoms: _294  and  _295
REMARK  107  A    between atoms: _294  and  _297
REMARK  108  A    between atoms: _297  and  _298
REMARK  109  A    between atoms: _304  and  _306
REMARK  110  A    between atoms: _306  and  _307
REMARK  111  A    between atoms: _306  and  _309
REMARK  112  A    between atoms: _309  and  _310
REMARK                            x       y       z     vdW  Elec       q    Type
REMARK                         _______ _______ _______ _____ _____    ______ ____
ROOT
ATOM      1  O   HOH     1     -58.219 -24.556 -28.730  0.00  0.00    +0.000 OA
ENDROOT
TORSDOF 0
REMARK  Name = ../refined-set-2016/4avj/4avj_pocket.pdb
REMARK  112 active torsions:
REMARK  status: ('A' for Active; 'I' for Inactive)
REMARK    1  A    between atoms: _1  and  _5
REMARK    2  A    between atoms: _5  and  _6
REMARK    3  A    between atoms: _5  and  _8
REMARK    4  A    between atoms: _8  and  _9
REMARK    5  A    between atoms: _15  and  _17
REMARK    6  A    between atoms: _17  and  _18
REMARK    7  A    between atoms: _22  and  _23
REMARK    8  A    between atoms: _28  and  _30
REMARK    9  A    between atoms: _30  and  _31
REMARK   10  A    between atoms: _30  and  _33
REMARK   11  A    between atoms: _33  and  _34
REMARK   12  A    between atoms: _37  and  _39
REMARK   13  A    between atoms: _39  and  _40
REMARK   14  A    between atoms: _42  and  _44
REMARK   15  A    between atoms: _44  and  _45
REMARK   16  A    between atoms: _47  and  _49
REMARK   17  A    between atoms: _60  and  _63
REMARK   18  A    between atoms: _63  and  _64
REMARK   19  A    between atoms: _71  and  _72
REMARK   20  A    between atoms: _78  and  _80
REMARK   21  A    between atoms: _80  and  _81
REMARK   22  A    between atoms: _80  and  _83
REMARK   23  A    between atoms: _83  and  _84
REMARK   24  A    between atoms: _89  and  _90
REMARK   25  A    between atoms: _93  and  _94
REMARK   26  A    between atoms: _99  and  _101
REMARK   27  A    between atoms: _101  and  _102
REMARK   28  A    between atoms: _101  and  _104
REMARK   29  A    between atoms: _104  and  _105
REMARK   30  A    between atoms: _105  and  _106
REMARK   31  A    between atoms: _109  and  _111
REMARK   32  A    between atoms: _111  and  _112
REMARK   33  A    between atoms: _111  and  _114
REMARK   34  A    between atoms: _114  and  _115
REMARK   35  A    between atoms: _118  and  _120
REMARK   36  A    between atoms: _120  and  _121
REMARK   37  A    between atoms: _120  and  _123
REMARK   38  A    between atoms: _123  and  _124
REMARK   39  A    between atoms: _127  and  _129
REMARK   40  A    between atoms: _129  and  _130
REMARK   41  A    between atoms: _129  and  _132
REMARK   42  A    between atoms: _132  and  _133
REMARK   43  A    between atoms: _136  and  _138
REMARK   44  A    between atoms: _138  and  _139
REMARK   45  A    between atoms: _138  and  _141
REMARK   46  A    between atoms: _141  and  _142
REMARK   47  A    between atoms: _145  and  _147
REMARK   48  A    between atoms: _147  and  _148
REMARK   49  A    between atoms: _147  and  _150
REMARK   50  A    between atoms: _150  and  _151
REMARK   51  A    between atoms: _156  and  _157
REMARK   52  A    between atoms: _159  and  _161
REMARK   53  A    between atoms: _161  and  _162
REMARK   54  A    between atoms: _161  and  _164
REMARK   55  A    between atoms: _164  and  _165
REMARK   56  A    between atoms: _170  and  _171
REMARK   57  A    between atoms: _173  and  _175
REMARK   58  A    between atoms: _175  and  _176
REMARK   59  A    between atoms: _175  and  _178
REMARK   60  A    between atoms: _178  and  _179
REMARK   61  A    between atoms: _181  and  _183
REMARK   62  A    between atoms: _183  and  _184
REMARK   63  A    between atoms: _183  and  _186
REMARK   64  A    between atoms: _186  and  _187
REMARK   65  A    between atoms: _187  and  _188
REMARK   66  A    between atoms: _188  and  _189
REMARK   67  A    between atoms: _198  and  _200
REMARK   68  A    between atoms: _200  and  _201
REMARK   69  A    between atoms: _200  and  _203
REMARK   70  A    between atoms: _203  and  _204
REMARK   71  A    between atoms: _204  and  _205
REMARK   72  A    between atoms: _210  and  _212
REMARK   73  A    between atoms: _212  and  _213
REMARK   74  A    between atoms: _212  and  _215
REMARK   75  A    between atoms: _215  and  _216
REMARK   76  A    between atoms: _219  and  _221
REMARK   77  A    between atoms: _221  and  _222
REMARK   78  A    between atoms: _221  and  _224
REMARK   79  A    between atoms: _224  and  _225
REMARK   80  A    between atoms: _230  and  _232
REMARK   81  A    between atoms: _232  and  _233
REMARK   82  A    between atoms: _232  and  _235
REMARK   83  A    between atoms: _235  and  _236
REMARK   84  A    between atoms: _241  and  _243
REMARK   85  A    between atoms: _243  and  _244
REMARK   86  A    between atoms: _243  and  _246
REMARK   87  A    between atoms: _246  and  _247
REMARK   88  A    between atoms: _252  and  _253
REMARK   89  A    between atoms: _255  and  _257
REMARK   90  A    between atoms: _257  and  _258
REMARK   91  A    between atoms: _257  and  _260
REMARK   92  A    between atoms: _260  and  _261
REMARK   93  A    between atoms: _266  and  _268
REMARK   94  A    between atoms: _268  and  _269
REMARK   95  A    between atoms: _268  and  _271
REMARK   96  A    between atoms: _271  and  _272
REMARK   97  A    between atoms: _274  and  _276
REMARK   98  A    between atoms: _276  and  _277
REMARK   99  A    between atoms: _276  and  _279
REMARK  100  A    between atoms: _279  and  _280
REMARK  101  A    between atoms: _283  and  _285
REMARK  102  A    between atoms: _285  and  _286
REMARK  103  A    between atoms: _285  and  _288
REMARK  104  A    between atoms: _288  and  _289
REMARK  105  A    between atoms: _292  and  _294
REMARK  106  A    between atoms: _294  and  _295
REMARK  107  A    between atoms: _294  and  _297
REMARK  108  A    between atoms: _297  and  _298
REMARK  109  A    between atoms: _304  and  _306
REMARK  110  A    between atoms: _306  and  _307
REMARK  111  A    between atoms: _306  and  _309
REMARK  112  A    between atoms: _309  and  _310
REMARK                            x       y       z     vdW  Elec       q    Type
REMARK                         _______ _______ _______ _____ _____    ______ ____
ROOT
ATOM      1  O   HOH     1     -61.614 -16.477 -28.630  0.00  0.00    +0.000 OA
ENDROOT
TORSDOF 0
REMARK  Name = ../refined-set-2016/4avj/4avj_pocket.pdb
REMARK  112 active torsions:
REMARK  status: ('A' for Active; 'I' for Inactive)
REMARK    1  A    between atoms: _1  and  _5
REMARK    2  A    between atoms: _5  and  _6
REMARK    3  A    between atoms: _5  and  _8
REMARK    4  A    between atoms: _8  and  _9
REMARK    5  A    between atoms: _15  and  _17
REMARK    6  A    between atoms: _17  and  _18
REMARK    7  A    between atoms: _22  and  _23
REMARK    8  A    between atoms: _28  and  _30
REMARK    9  A    between atoms: _30  and  _31
REMARK   10  A    between atoms: _30  and  _33
REMARK   11  A    between atoms: _33  and  _34
REMARK   12  A    between atoms: _37  and  _39
REMARK   13  A    between atoms: _39  and  _40
REMARK   14  A    between atoms: _42  and  _44
REMARK   15  A    between atoms: _44  and  _45
REMARK   16  A    between atoms: _47  and  _49
REMARK   17  A    between atoms: _60  and  _63
REMARK   18  A    between atoms: _63  and  _64
REMARK   19  A    between atoms: _71  and  _72
REMARK   20  A    between atoms: _78  and  _80
REMARK   21  A    between atoms: _80  and  _81
REMARK   22  A    between atoms: _80  and  _83
REMARK   23  A    between atoms: _83  and  _84
REMARK   24  A    between atoms: _89  and  _90
REMARK   25  A    between atoms: _93  and  _94
REMARK   26  A    between atoms: _99  and  _101
REMARK   27  A    between atoms: _101  and  _102
REMARK   28  A    between atoms: _101  and  _104
REMARK   29  A    between atoms: _104  and  _105
REMARK   30  A    between atoms: _105  and  _106
REMARK   31  A    between atoms: _109  and  _111
REMARK   32  A    between atoms: _111  and  _112
REMARK   33  A    between atoms: _111  and  _114
REMARK   34  A    between atoms: _114  and  _115
REMARK   35  A    between atoms: _118  and  _120
REMARK   36  A    between atoms: _120  and  _121
REMARK   37  A    between atoms: _120  and  _123
REMARK   38  A    between atoms: _123  and  _124
REMARK   39  A    between atoms: _127  and  _129
REMARK   40  A    between atoms: _129  and  _130
REMARK   41  A    between atoms: _129  and  _132
REMARK   42  A    between atoms: _132  and  _133
REMARK   43  A    between atoms: _136  and  _138
REMARK   44  A    between atoms: _138  and  _139
REMARK   45  A    between atoms: _138  and  _141
REMARK   46  A    between atoms: _141  and  _142
REMARK   47  A    between atoms: _145  and  _147
REMARK   48  A    between atoms: _147  and  _148
REMARK   49  A    between atoms: _147  and  _150
REMARK   50  A    between atoms: _150  and  _151
REMARK   51  A    between atoms: _156  and  _157
REMARK   52  A    between atoms: _159  and  _161
REMARK   53  A    between atoms: _161  and  _162
REMARK   54  A    between atoms: _161  and  _164
REMARK   55  A    between atoms: _164  and  _165
REMARK   56  A    between atoms: _170  and  _171
REMARK   57  A    between atoms: _173  and  _175
REMARK   58  A    between atoms: _175  and  _176
REMARK   59  A    between atoms: _175  and  _178
REMARK   60  A    between atoms: _178  and  _179
REMARK   61  A    between atoms: _181  and  _183
REMARK   62  A    between atoms: _183  and  _184
REMARK   63  A    between atoms: _183  and  _186
REMARK   64  A    between atoms: _186  and  _187
REMARK   65  A    between atoms: _187  and  _188
REMARK   66  A    between atoms: _188  and  _189
REMARK   67  A    between atoms: _198  and  _200
REMARK   68  A    between atoms: _200  and  _201
REMARK   69  A    between atoms: _200  and  _203
REMARK   70  A    between atoms: _203  and  _204
REMARK   71  A    between atoms: _204  and  _205
REMARK   72  A    between atoms: _210  and  _212
REMARK   73  A    between atoms: _212  and  _213
REMARK   74  A    between atoms: _212  and  _215
REMARK   75  A    between atoms: _215  and  _216
REMARK   76  A    between atoms: _219  and  _221
REMARK   77  A    between atoms: _221  and  _222
REMARK   78  A    between atoms: _221  and  _224
REMARK   79  A    between atoms: _224  and  _225
REMARK   80  A    between atoms: _230  and  _232
REMARK   81  A    between atoms: _232  and  _233
REMARK   82  A    between atoms: _232  and  _235
REMARK   83  A    between atoms: _235  and  _236
REMARK   84  A    between atoms: _241  and  _243
REMARK   85  A    between atoms: _243  and  _244
REMARK   86  A    between atoms: _243  and  _246
REMARK   87  A    between atoms: _246  and  _247
REMARK   88  A    between atoms: _252  and  _253
REMARK   89  A    between atoms: _255  and  _257
REMARK   90  A    between atoms: _257  and  _258
REMARK   91  A    between atoms: _257  and  _260
REMARK   92  A    between atoms: _260  and  _261
REMARK   93  A    between atoms: _266  and  _268
REMARK   94  A    between atoms: _268  and  _269
REMARK   95  A    between atoms: _268  and  _271
REMARK   96  A    between atoms: _271  and  _272
REMARK   97  A    between atoms: _274  and  _276
REMARK   98  A    between atoms: _276  and  _277
REMARK   99  A    between atoms: _276  and  _279
REMARK  100  A    between atoms: _279  and  _280
REMARK  101  A    between atoms: _283  and  _285
REMARK  102  A    between atoms: _285  and  _286
REMARK  103  A    between atoms: _285  and  _288
REMARK  104  A    between atoms: _288  and  _289
REMARK  105  A    between atoms: _292  and  _294
REMARK  106  A    between atoms: _294  and  _295
REMARK  107  A    between atoms: _294  and  _297
REMARK  108  A    between atoms: _297  and  _298
REMARK  109  A    between atoms: _304  and  _306
REMARK  110  A    between atoms: _306  and  _307
REMARK  111  A    between atoms: _306  and  _309
REMARK  112  A    between atoms: _309  and  _310
REMARK                            x       y       z     vdW  Elec       q    Type
REMARK                         _______ _______ _______ _____ _____    ______ ____
ROOT
ATOM      1  O   HOH     1     -61.068 -12.408 -27.284  0.00  0.00    +0.000 OA
ENDROOT
TORSDOF 0
REMARK  Name = ../refined-set-2016/4avj/4avj_pocket.pdb
REMARK  112 active torsions:
REMARK  status: ('A' for Active; 'I' for Inactive)
REMARK    1  A    between atoms: _1  and  _5
REMARK    2  A    between atoms: _5  and  _6
REMARK    3  A    between atoms: _5  and  _8
REMARK    4  A    between atoms: _8  and  _9
REMARK    5  A    between atoms: _15  and  _17
REMARK    6  A    between atoms: _17  and  _18
REMARK    7  A    between atoms: _22  and  _23
REMARK    8  A    between atoms: _28  and  _30
REMARK    9  A    between atoms: _30  and  _31
REMARK   10  A    between atoms: _30  and  _33
REMARK   11  A    between atoms: _33  and  _34
REMARK   12  A    between atoms: _37  and  _39
REMARK   13  A    between atoms: _39  and  _40
REMARK   14  A    between atoms: _42  and  _44
REMARK   15  A    between atoms: _44  and  _45
REMARK   16  A    between atoms: _47  and  _49
REMARK   17  A    between atoms: _60  and  _63
REMARK   18  A    between atoms: _63  and  _64
REMARK   19  A    between atoms: _71  and  _72
REMARK   20  A    between atoms: _78  and  _80
REMARK   21  A    between atoms: _80  and  _81
REMARK   22  A    between atoms: _80  and  _83
REMARK   23  A    between atoms: _83  and  _84
REMARK   24  A    between atoms: _89  and  _90
REMARK   25  A    between atoms: _93  and  _94
REMARK   26  A    between atoms: _99  and  _101
REMARK   27  A    between atoms: _101  and  _102
REMARK   28  A    between atoms: _101  and  _104
REMARK   29  A    between atoms: _104  and  _105
REMARK   30  A    between atoms: _105  and  _106
REMARK   31  A    between atoms: _109  and  _111
REMARK   32  A    between atoms: _111  and  _112
REMARK   33  A    between atoms: _111  and  _114
REMARK   34  A    between atoms: _114  and  _115
REMARK   35  A    between atoms: _118  and  _120
REMARK   36  A    between atoms: _120  and  _121
REMARK   37  A    between atoms: _120  and  _123
REMARK   38  A    between atoms: _123  and  _124
REMARK   39  A    between atoms: _127  and  _129
REMARK   40  A    between atoms: _129  and  _130
REMARK   41  A    between atoms: _129  and  _132
REMARK   42  A    between atoms: _132  and  _133
REMARK   43  A    between atoms: _136  and  _138
REMARK   44  A    between atoms: _138  and  _139
REMARK   45  A    between atoms: _138  and  _141
REMARK   46  A    between atoms: _141  and  _142
REMARK   47  A    between atoms: _145  and  _147
REMARK   48  A    between atoms: _147  and  _148
REMARK   49  A    between atoms: _147  and  _150
REMARK   50  A    between atoms: _150  and  _151
REMARK   51  A    between atoms: _156  and  _157
REMARK   52  A    between atoms: _159  and  _161
REMARK   53  A    between atoms: _161  and  _162
REMARK   54  A    between atoms: _161  and  _164
REMARK   55  A    between atoms: _164  and  _165
REMARK   56  A    between atoms: _170  and  _171
REMARK   57  A    between atoms: _173  and  _175
REMARK   58  A    between atoms: _175  and  _176
REMARK   59  A    between atoms: _175  and  _178
REMARK   60  A    between atoms: _178  and  _179
REMARK   61  A    between atoms: _181  and  _183
REMARK   62  A    between atoms: _183  and  _184
REMARK   63  A    between atoms: _183  and  _186
REMARK   64  A    between atoms: _186  and  _187
REMARK   65  A    between atoms: _187  and  _188
REMARK   66  A    between atoms: _188  and  _189
REMARK   67  A    between atoms: _198  and  _200
REMARK   68  A    between atoms: _200  and  _201
REMARK   69  A    between atoms: _200  and  _203
REMARK   70  A    between atoms: _203  and  _204
REMARK   71  A    between atoms: _204  and  _205
REMARK   72  A    between atoms: _210  and  _212
REMARK   73  A    between atoms: _212  and  _213
REMARK   74  A    between atoms: _212  and  _215
REMARK   75  A    between atoms: _215  and  _216
REMARK   76  A    between atoms: _219  and  _221
REMARK   77  A    between atoms: _221  and  _222
REMARK   78  A    between atoms: _221  and  _224
REMARK   79  A    between atoms: _224  and  _225
REMARK   80  A    between atoms: _230  and  _232
REMARK   81  A    between atoms: _232  and  _233
REMARK   82  A    between atoms: _232  and  _235
REMARK   83  A    between atoms: _235  and  _236
REMARK   84  A    between atoms: _241  and  _243
REMARK   85  A    between atoms: _243  and  _244
REMARK   86  A    between atoms: _243  and  _246
REMARK   87  A    between atoms: _246  and  _247
REMARK   88  A    between atoms: _252  and  _253
REMARK   89  A    between atoms: _255  and  _257
REMARK   90  A    between atoms: _257  and  _258
REMARK   91  A    between atoms: _257  and  _260
REMARK   92  A    between atoms: _260  and  _261
REMARK   93  A    between atoms: _266  and  _268
REMARK   94  A    between atoms: _268  and  _269
REMARK   95  A    between atoms: _268  and  _271
REMARK   96  A    between atoms: _271  and  _272
REMARK   97  A    between atoms: _274  and  _276
REMARK   98  A    between atoms: _276  and  _277
REMARK   99  A    between atoms: _276  and  _279
REMARK  100  A    between atoms: _279  and  _280
REMARK  101  A    between atoms: _283  and  _285
REMARK  102  A    between atoms: _285  and  _286
REMARK  103  A    between atoms: _285  and  _288
REMARK  104  A    between atoms: _288  and  _289
REMARK  105  A    between atoms: _292  and  _294
REMARK  106  A    between atoms: _294  and  _295
REMARK  107  A    between atoms: _294  and  _297
REMARK  108  A    between atoms: _297  and  _298
REMARK  109  A    between atoms: _304  and  _306
REMARK  110  A    between atoms: _306  and  _307
REMARK  111  A    between atoms: _306  and  _309
REMARK  112  A    between atoms: _309  and  _310
REMARK                            x       y       z     vdW  Elec       q    Type
REMARK                         _______ _______ _______ _____ _____    ______ ____
ROOT
ATOM      1  O   HOH     1     -64.523  -9.485 -21.985  0.00  0.00    +0.000 OA
ENDROOT
TORSDOF 0
REMARK  Name = ../refined-set-2016/4avj/4avj_pocket.pdb
REMARK  112 active torsions:
REMARK  status: ('A' for Active; 'I' for Inactive)
REMARK    1  A    between atoms: _1  and  _5
REMARK    2  A    between atoms: _5  and  _6
REMARK    3  A    between atoms: _5  and  _8
REMARK    4  A    between atoms: _8  and  _9
REMARK    5  A    between atoms: _15  and  _17
REMARK    6  A    between atoms: _17  and  _18
REMARK    7  A    between atoms: _22  and  _23
REMARK    8  A    between atoms: _28  and  _30
REMARK    9  A    between atoms: _30  and  _31
REMARK   10  A    between atoms: _30  and  _33
REMARK   11  A    between atoms: _33  and  _34
REMARK   12  A    between atoms: _37  and  _39
REMARK   13  A    between atoms: _39  and  _40
REMARK   14  A    between atoms: _42  and  _44
REMARK   15  A    between atoms: _44  and  _45
REMARK   16  A    between atoms: _47  and  _49
REMARK   17  A    between atoms: _60  and  _63
REMARK   18  A    between atoms: _63  and  _64
REMARK   19  A    between atoms: _71  and  _72
REMARK   20  A    between atoms: _78  and  _80
REMARK   21  A    between atoms: _80  and  _81
REMARK   22  A    between atoms: _80  and  _83
REMARK   23  A    between atoms: _83  and  _84
REMARK   24  A    between atoms: _89  and  _90
REMARK   25  A    between atoms: _93  and  _94
REMARK   26  A    between atoms: _99  and  _101
REMARK   27  A    between atoms: _101  and  _102
REMARK   28  A    between atoms: _101  and  _104
REMARK   29  A    between atoms: _104  and  _105
REMARK   30  A    between atoms: _105  and  _106
REMARK   31  A    between atoms: _109  and  _111
REMARK   32  A    between atoms: _111  and  _112
REMARK   33  A    between atoms: _111  and  _114
REMARK   34  A    between atoms: _114  and  _115
REMARK   35  A    between atoms: _118  and  _120
REMARK   36  A    between atoms: _120  and  _121
REMARK   37  A    between atoms: _120  and  _123
REMARK   38  A    between atoms: _123  and  _124
REMARK   39  A    between atoms: _127  and  _129
REMARK   40  A    between atoms: _129  and  _130
REMARK   41  A    between atoms: _129  and  _132
REMARK   42  A    between atoms: _132  and  _133
REMARK   43  A    between atoms: _136  and  _138
REMARK   44  A    between atoms: _138  and  _139
REMARK   45  A    between atoms: _138  and  _141
REMARK   46  A    between atoms: _141  and  _142
REMARK   47  A    between atoms: _145  and  _147
REMARK   48  A    between atoms: _147  and  _148
REMARK   49  A    between atoms: _147  and  _150
REMARK   50  A    between atoms: _150  and  _151
REMARK   51  A    between atoms: _156  and  _157
REMARK   52  A    between atoms: _159  and  _161
REMARK   53  A    between atoms: _161  and  _162
REMARK   54  A    between atoms: _161  and  _164
REMARK   55  A    between atoms: _164  and  _165
REMARK   56  A    between atoms: _170  and  _171
REMARK   57  A    between atoms: _173  and  _175
REMARK   58  A    between atoms: _175  and  _176
REMARK   59  A    between atoms: _175  and  _178
REMARK   60  A    between atoms: _178  and  _179
REMARK   61  A    between atoms: _181  and  _183
REMARK   62  A    between atoms: _183  and  _184
REMARK   63  A    between atoms: _183  and  _186
REMARK   64  A    between atoms: _186  and  _187
REMARK   65  A    between atoms: _187  and  _188
REMARK   66  A    between atoms: _188  and  _189
REMARK   67  A    between atoms: _198  and  _200
REMARK   68  A    between atoms: _200  and  _201
REMARK   69  A    between atoms: _200  and  _203
REMARK   70  A    between atoms: _203  and  _204
REMARK   71  A    between atoms: _204  and  _205
REMARK   72  A    between atoms: _210  and  _212
REMARK   73  A    between atoms: _212  and  _213
REMARK   74  A    between atoms: _212  and  _215
REMARK   75  A    between atoms: _215  and  _216
REMARK   76  A    between atoms: _219  and  _221
REMARK   77  A    between atoms: _221  and  _222
REMARK   78  A    between atoms: _221  and  _224
REMARK   79  A    between atoms: _224  and  _225
REMARK   80  A    between atoms: _230  and  _232
REMARK   81  A    between atoms: _232  and  _233
REMARK   82  A    between atoms: _232  and  _235
REMARK   83  A    between atoms: _235  and  _236
REMARK   84  A    between atoms: _241  and  _243
REMARK   85  A    between atoms: _243  and  _244
REMARK   86  A    between atoms: _243  and  _246
REMARK   87  A    between atoms: _246  and  _247
REMARK   88  A    between atoms: _252  and  _253
REMARK   89  A    between atoms: _255  and  _257
REMARK   90  A    between atoms: _257  and  _258
REMARK   91  A    between atoms: _257  and  _260
REMARK   92  A    between atoms: _260  and  _261
REMARK   93  A    between atoms: _266  and  _268
REMARK   94  A    between atoms: _268  and  _269
REMARK   95  A    between atoms: _268  and  _271
REMARK   96  A    between atoms: _271  and  _272
REMARK   97  A    between atoms: _274  and  _276
REMARK   98  A    between atoms: _276  and  _277
REMARK   99  A    between atoms: _276  and  _279
REMARK  100  A    between atoms: _279  and  _280
REMARK  101  A    between atoms: _283  and  _285
REMARK  102  A    between atoms: _285  and  _286
REMARK  103  A    between atoms: _285  and  _288
REMARK  104  A    between atoms: _288  and  _289
REMARK  105  A    between atoms: _292  and  _294
REMARK  106  A    between atoms: _294  and  _295
REMARK  107  A    between atoms: _294  and  _297
REMARK  108  A    between atoms: _297  and  _298
REMARK  109  A    between atoms: _304  and  _306
REMARK  110  A    between atoms: _306  and  _307
REMARK  111  A    between atoms: _306  and  _309
REMARK  112  A    between atoms: _309  and  _310
REMARK                            x       y       z     vdW  Elec       q    Type
REMARK                         _______ _______ _______ _____ _____    ______ ____
ROOT
ATOM      1  O   HOH     1     -71.705 -19.810 -15.592  0.00  0.00    +0.000 OA
ENDROOT
TORSDOF 0
REMARK  Name = ../refined-set-2016/4avj/4avj_pocket.pdb
REMARK  112 active torsions:
REMARK  status: ('A' for Active; 'I' for Inactive)
REMARK    1  A    between atoms: _1  and  _5
REMARK    2  A    between atoms: _5  and  _6
REMARK    3  A    between atoms: _5  and  _8
REMARK    4  A    between atoms: _8  and  _9
REMARK    5  A    between atoms: _15  and  _17
REMARK    6  A    between atoms: _17  and  _18
REMARK    7  A    between atoms: _22  and  _23
REMARK    8  A    between atoms: _28  and  _30
REMARK    9  A    between atoms: _30  and  _31
REMARK   10  A    between atoms: _30  and  _33
REMARK   11  A    between atoms: _33  and  _34
REMARK   12  A    between atoms: _37  and  _39
REMARK   13  A    between atoms: _39  and  _40
REMARK   14  A    between atoms: _42  and  _44
REMARK   15  A    between atoms: _44  and  _45
REMARK   16  A    between atoms: _47  and  _49
REMARK   17  A    between atoms: _60  and  _63
REMARK   18  A    between atoms: _63  and  _64
REMARK   19  A    between atoms: _71  and  _72
REMARK   20  A    between atoms: _78  and  _80
REMARK   21  A    between atoms: _80  and  _81
REMARK   22  A    between atoms: _80  and  _83
REMARK   23  A    between atoms: _83  and  _84
REMARK   24  A    between atoms: _89  and  _90
REMARK   25  A    between atoms: _93  and  _94
REMARK   26  A    between atoms: _99  and  _101
REMARK   27  A    between atoms: _101  and  _102
REMARK   28  A    between atoms: _101  and  _104
REMARK   29  A    between atoms: _104  and  _105
REMARK   30  A    between atoms: _105  and  _106
REMARK   31  A    between atoms: _109  and  _111
REMARK   32  A    between atoms: _111  and  _112
REMARK   33  A    between atoms: _111  and  _114
REMARK   34  A    between atoms: _114  and  _115
REMARK   35  A    between atoms: _118  and  _120
REMARK   36  A    between atoms: _120  and  _121
REMARK   37  A    between atoms: _120  and  _123
REMARK   38  A    between atoms: _123  and  _124
REMARK   39  A    between atoms: _127  and  _129
REMARK   40  A    between atoms: _129  and  _130
REMARK   41  A    between atoms: _129  and  _132
REMARK   42  A    between atoms: _132  and  _133
REMARK   43  A    between atoms: _136  and  _138
REMARK   44  A    between atoms: _138  and  _139
REMARK   45  A    between atoms: _138  and  _141
REMARK   46  A    between atoms: _141  and  _142
REMARK   47  A    between atoms: _145  and  _147
REMARK   48  A    between atoms: _147  and  _148
REMARK   49  A    between atoms: _147  and  _150
REMARK   50  A    between atoms: _150  and  _151
REMARK   51  A    between atoms: _156  and  _157
REMARK   52  A    between atoms: _159  and  _161
REMARK   53  A    between atoms: _161  and  _162
REMARK   54  A    between atoms: _161  and  _164
REMARK   55  A    between atoms: _164  and  _165
REMARK   56  A    between atoms: _170  and  _171
REMARK   57  A    between atoms: _173  and  _175
REMARK   58  A    between atoms: _175  and  _176
REMARK   59  A    between atoms: _175  and  _178
REMARK   60  A    between atoms: _178  and  _179
REMARK   61  A    between atoms: _181  and  _183
REMARK   62  A    between atoms: _183  and  _184
REMARK   63  A    between atoms: _183  and  _186
REMARK   64  A    between atoms: _186  and  _187
REMARK   65  A    between atoms: _187  and  _188
REMARK   66  A    between atoms: _188  and  _189
REMARK   67  A    between atoms: _198  and  _200
REMARK   68  A    between atoms: _200  and  _201
REMARK   69  A    between atoms: _200  and  _203
REMARK   70  A    between atoms: _203  and  _204
REMARK   71  A    between atoms: _204  and  _205
REMARK   72  A    between atoms: _210  and  _212
REMARK   73  A    between atoms: _212  and  _213
REMARK   74  A    between atoms: _212  and  _215
REMARK   75  A    between atoms: _215  and  _216
REMARK   76  A    between atoms: _219  and  _221
REMARK   77  A    between atoms: _221  and  _222
REMARK   78  A    between atoms: _221  and  _224
REMARK   79  A    between atoms: _224  and  _225
REMARK   80  A    between atoms: _230  and  _232
REMARK   81  A    between atoms: _232  and  _233
REMARK   82  A    between atoms: _232  and  _235
REMARK   83  A    between atoms: _235  and  _236
REMARK   84  A    between atoms: _241  and  _243
REMARK   85  A    between atoms: _243  and  _244
REMARK   86  A    between atoms: _243  and  _246
REMARK   87  A    between atoms: _246  and  _247
REMARK   88  A    between atoms: _252  and  _253
REMARK   89  A    between atoms: _255  and  _257
REMARK   90  A    between atoms: _257  and  _258
REMARK   91  A    between atoms: _257  and  _260
REMARK   92  A    between atoms: _260  and  _261
REMARK   93  A    between atoms: _266  and  _268
REMARK   94  A    between atoms: _268  and  _269
REMARK   95  A    between atoms: _268  and  _271
REMARK   96  A    between atoms: _271  and  _272
REMARK   97  A    between atoms: _274  and  _276
REMARK   98  A    between atoms: _276  and  _277
REMARK   99  A    between atoms: _276  and  _279
REMARK  100  A    between atoms: _279  and  _280
REMARK  101  A    between atoms: _283  and  _285
REMARK  102  A    between atoms: _285  and  _286
REMARK  103  A    between atoms: _285  and  _288
REMARK  104  A    between atoms: _288  and  _289
REMARK  105  A    between atoms: _292  and  _294
REMARK  106  A    between atoms: _294  and  _295
REMARK  107  A    between atoms: _294  and  _297
REMARK  108  A    between atoms: _297  and  _298
REMARK  109  A    between atoms: _304  and  _306
REMARK  110  A    between atoms: _306  and  _307
REMARK  111  A    between atoms: _306  and  _309
REMARK  112  A    between atoms: _309  and  _310
REMARK                            x       y       z     vdW  Elec       q    Type
REMARK                         _______ _______ _______ _____ _____    ______ ____
ROOT
ATOM      1  O   HOH     1     -60.416 -26.586 -24.384  0.00  0.00    +0.000 OA
ENDROOT
TORSDOF 0
REMARK  Name = ../refined-set-2016/4avj/4avj_pocket.pdb
REMARK  112 active torsions:
REMARK  status: ('A' for Active; 'I' for Inactive)
REMARK    1  A    between atoms: _1  and  _5
REMARK    2  A    between atoms: _5  and  _6
REMARK    3  A    between atoms: _5  and  _8
REMARK    4  A    between atoms: _8  and  _9
REMARK    5  A    between atoms: _15  and  _17
REMARK    6  A    between atoms: _17  and  _18
REMARK    7  A    between atoms: _22  and  _23
REMARK    8  A    between atoms: _28  and  _30
REMARK    9  A    between atoms: _30  and  _31
REMARK   10  A    between atoms: _30  and  _33
REMARK   11  A    between atoms: _33  and  _34
REMARK   12  A    between atoms: _37  and  _39
REMARK   13  A    between atoms: _39  and  _40
REMARK   14  A    between atoms: _42  and  _44
REMARK   15  A    between atoms: _44  and  _45
REMARK   16  A    between atoms: _47  and  _49
REMARK   17  A    between atoms: _60  and  _63
REMARK   18  A    between atoms: _63  and  _64
REMARK   19  A    between atoms: _71  and  _72
REMARK   20  A    between atoms: _78  and  _80
REMARK   21  A    between atoms: _80  and  _81
REMARK   22  A    between atoms: _80  and  _83
REMARK   23  A    between atoms: _83  and  _84
REMARK   24  A    between atoms: _89  and  _90
REMARK   25  A    between atoms: _93  and  _94
REMARK   26  A    between atoms: _99  and  _101
REMARK   27  A    between atoms: _101  and  _102
REMARK   28  A    between atoms: _101  and  _104
REMARK   29  A    between atoms: _104  and  _105
REMARK   30  A    between atoms: _105  and  _106
REMARK   31  A    between atoms: _109  and  _111
REMARK   32  A    between atoms: _111  and  _112
REMARK   33  A    between atoms: _111  and  _114
REMARK   34  A    between atoms: _114  and  _115
REMARK   35  A    between atoms: _118  and  _120
REMARK   36  A    between atoms: _120  and  _121
REMARK   37  A    between atoms: _120  and  _123
REMARK   38  A    between atoms: _123  and  _124
REMARK   39  A    between atoms: _127  and  _129
REMARK   40  A    between atoms: _129  and  _130
REMARK   41  A    between atoms: _129  and  _132
REMARK   42  A    between atoms: _132  and  _133
REMARK   43  A    between atoms: _136  and  _138
REMARK   44  A    between atoms: _138  and  _139
REMARK   45  A    between atoms: _138  and  _141
REMARK   46  A    between atoms: _141  and  _142
REMARK   47  A    between atoms: _145  and  _147
REMARK   48  A    between atoms: _147  and  _148
REMARK   49  A    between atoms: _147  and  _150
REMARK   50  A    between atoms: _150  and  _151
REMARK   51  A    between atoms: _156  and  _157
REMARK   52  A    between atoms: _159  and  _161
REMARK   53  A    between atoms: _161  and  _162
REMARK   54  A    between atoms: _161  and  _164
REMARK   55  A    between atoms: _164  and  _165
REMARK   56  A    between atoms: _170  and  _171
REMARK   57  A    between atoms: _173  and  _175
REMARK   58  A    between atoms: _175  and  _176
REMARK   59  A    between atoms: _175  and  _178
REMARK   60  A    between atoms: _178  and  _179
REMARK   61  A    between atoms: _181  and  _183
REMARK   62  A    between atoms: _183  and  _184
REMARK   63  A    between atoms: _183  and  _186
REMARK   64  A    between atoms: _186  and  _187
REMARK   65  A    between atoms: _187  and  _188
REMARK   66  A    between atoms: _188  and  _189
REMARK   67  A    between atoms: _198  and  _200
REMARK   68  A    between atoms: _200  and  _201
REMARK   69  A    between atoms: _200  and  _203
REMARK   70  A    between atoms: _203  and  _204
REMARK   71  A    between atoms: _204  and  _205
REMARK   72  A    between atoms: _210  and  _212
REMARK   73  A    between atoms: _212  and  _213
REMARK   74  A    between atoms: _212  and  _215
REMARK   75  A    between atoms: _215  and  _216
REMARK   76  A    between atoms: _219  and  _221
REMARK   77  A    between atoms: _221  and  _222
REMARK   78  A    between atoms: _221  and  _224
REMARK   79  A    between atoms: _224  and  _225
REMARK   80  A    between atoms: _230  and  _232
REMARK   81  A    between atoms: _232  and  _233
REMARK   82  A    between atoms: _232  and  _235
REMARK   83  A    between atoms: _235  and  _236
REMARK   84  A    between atoms: _241  and  _243
REMARK   85  A    between atoms: _243  and  _244
REMARK   86  A    between atoms: _243  and  _246
REMARK   87  A    between atoms: _246  and  _247
REMARK   88  A    between atoms: _252  and  _253
REMARK   89  A    between atoms: _255  and  _257
REMARK   90  A    between atoms: _257  and  _258
REMARK   91  A    between atoms: _257  and  _260
REMARK   92  A    between atoms: _260  and  _261
REMARK   93  A    between atoms: _266  and  _268
REMARK   94  A    between atoms: _268  and  _269
REMARK   95  A    between atoms: _268  and  _271
REMARK   96  A    between atoms: _271  and  _272
REMARK   97  A    between atoms: _274  and  _276
REMARK   98  A    between atoms: _276  and  _277
REMARK   99  A    between atoms: _276  and  _279
REMARK  100  A    between atoms: _279  and  _280
REMARK  101  A    between atoms: _283  and  _285
REMARK  102  A    between atoms: _285  and  _286
REMARK  103  A    between atoms: _285  and  _288
REMARK  104  A    between atoms: _288  and  _289
REMARK  105  A    between atoms: _292  and  _294
REMARK  106  A    between atoms: _294  and  _295
REMARK  107  A    between atoms: _294  and  _297
REMARK  108  A    between atoms: _297  and  _298
REMARK  109  A    between atoms: _304  and  _306
REMARK  110  A    between atoms: _306  and  _307
REMARK  111  A    between atoms: _306  and  _309
REMARK  112  A    between atoms: _309  and  _310
REMARK                            x       y       z     vdW  Elec       q    Type
REMARK                         _______ _______ _______ _____ _____    ______ ____
ROOT
ATOM      1  O   HOH     1     -60.465 -22.943 -13.275  0.00  0.00    +0.000 OA
ENDROOT
TORSDOF 0
REMARK  Name = ../refined-set-2016/4avj/4avj_pocket.pdb
REMARK  112 active torsions:
REMARK  status: ('A' for Active; 'I' for Inactive)
REMARK    1  A    between atoms: _1  and  _5
REMARK    2  A    between atoms: _5  and  _6
REMARK    3  A    between atoms: _5  and  _8
REMARK    4  A    between atoms: _8  and  _9
REMARK    5  A    between atoms: _15  and  _17
REMARK    6  A    between atoms: _17  and  _18
REMARK    7  A    between atoms: _22  and  _23
REMARK    8  A    between atoms: _28  and  _30
REMARK    9  A    between atoms: _30  and  _31
REMARK   10  A    between atoms: _30  and  _33
REMARK   11  A    between atoms: _33  and  _34
REMARK   12  A    between atoms: _37  and  _39
REMARK   13  A    between atoms: _39  and  _40
REMARK   14  A    between atoms: _42  and  _44
REMARK   15  A    between atoms: _44  and  _45
REMARK   16  A    between atoms: _47  and  _49
REMARK   17  A    between atoms: _60  and  _63
REMARK   18  A    between atoms: _63  and  _64
REMARK   19  A    between atoms: _71  and  _72
REMARK   20  A    between atoms: _78  and  _80
REMARK   21  A    between atoms: _80  and  _81
REMARK   22  A    between atoms: _80  and  _83
REMARK   23  A    between atoms: _83  and  _84
REMARK   24  A    between atoms: _89  and  _90
REMARK   25  A    between atoms: _93  and  _94
REMARK   26  A    between atoms: _99  and  _101
REMARK   27  A    between atoms: _101  and  _102
REMARK   28  A    between atoms: _101  and  _104
REMARK   29  A    between atoms: _104  and  _105
REMARK   30  A    between atoms: _105  and  _106
REMARK   31  A    between atoms: _109  and  _111
REMARK   32  A    between atoms: _111  and  _112
REMARK   33  A    between atoms: _111  and  _114
REMARK   34  A    between atoms: _114  and  _115
REMARK   35  A    between atoms: _118  and  _120
REMARK   36  A    between atoms: _120  and  _121
REMARK   37  A    between atoms: _120  and  _123
REMARK   38  A    between atoms: _123  and  _124
REMARK   39  A    between atoms: _127  and  _129
REMARK   40  A    between atoms: _129  and  _130
REMARK   41  A    between atoms: _129  and  _132
REMARK   42  A    between atoms: _132  and  _133
REMARK   43  A    between atoms: _136  and  _138
REMARK   44  A    between atoms: _138  and  _139
REMARK   45  A    between atoms: _138  and  _141
REMARK   46  A    between atoms: _141  and  _142
REMARK   47  A    between atoms: _145  and  _147
REMARK   48  A    between atoms: _147  and  _148
REMARK   49  A    between atoms: _147  and  _150
REMARK   50  A    between atoms: _150  and  _151
REMARK   51  A    between atoms: _156  and  _157
REMARK   52  A    between atoms: _159  and  _161
REMARK   53  A    between atoms: _161  and  _162
REMARK   54  A    between atoms: _161  and  _164
REMARK   55  A    between atoms: _164  and  _165
REMARK   56  A    between atoms: _170  and  _171
REMARK   57  A    between atoms: _173  and  _175
REMARK   58  A    between atoms: _175  and  _176
REMARK   59  A    between atoms: _175  and  _178
REMARK   60  A    between atoms: _178  and  _179
REMARK   61  A    between atoms: _181  and  _183
REMARK   62  A    between atoms: _183  and  _184
REMARK   63  A    between atoms: _183  and  _186
REMARK   64  A    between atoms: _186  and  _187
REMARK   65  A    between atoms: _187  and  _188
REMARK   66  A    between atoms: _188  and  _189
REMARK   67  A    between atoms: _198  and  _200
REMARK   68  A    between atoms: _200  and  _201
REMARK   69  A    between atoms: _200  and  _203
REMARK   70  A    between atoms: _203  and  _204
REMARK   71  A    between atoms: _204  and  _205
REMARK   72  A    between atoms: _210  and  _212
REMARK   73  A    between atoms: _212  and  _213
REMARK   74  A    between atoms: _212  and  _215
REMARK   75  A    between atoms: _215  and  _216
REMARK   76  A    between atoms: _219  and  _221
REMARK   77  A    between atoms: _221  and  _222
REMARK   78  A    between atoms: _221  and  _224
REMARK   79  A    between atoms: _224  and  _225
REMARK   80  A    between atoms: _230  and  _232
REMARK   81  A    between atoms: _232  and  _233
REMARK   82  A    between atoms: _232  and  _235
REMARK   83  A    between atoms: _235  and  _236
REMARK   84  A    between atoms: _241  and  _243
REMARK   85  A    between atoms: _243  and  _244
REMARK   86  A    between atoms: _243  and  _246
REMARK   87  A    between atoms: _246  and  _247
REMARK   88  A    between atoms: _252  and  _253
REMARK   89  A    between atoms: _255  and  _257
REMARK   90  A    between atoms: _257  and  _258
REMARK   91  A    between atoms: _257  and  _260
REMARK   92  A    between atoms: _260  and  _261
REMARK   93  A    between atoms: _266  and  _268
REMARK   94  A    between atoms: _268  and  _269
REMARK   95  A    between atoms: _268  and  _271
REMARK   96  A    between atoms: _271  and  _272
REMARK   97  A    between atoms: _274  and  _276
REMARK   98  A    between atoms: _276  and  _277
REMARK   99  A    between atoms: _276  and  _279
REMARK  100  A    between atoms: _279  and  _280
REMARK  101  A    between atoms: _283  and  _285
REMARK  102  A    between atoms: _285  and  _286
REMARK  103  A    between atoms: _285  and  _288
REMARK  104  A    between atoms: _288  and  _289
REMARK  105  A    between atoms: _292  and  _294
REMARK  106  A    between atoms: _294  and  _295
REMARK  107  A    between atoms: _294  and  _297
REMARK  108  A    between atoms: _297  and  _298
REMARK  109  A    between atoms: _304  and  _306
REMARK  110  A    between atoms: _306  and  _307
REMARK  111  A    between atoms: _306  and  _309
REMARK  112  A    between atoms: _309  and  _310
REMARK                            x       y       z     vdW  Elec       q    Type
REMARK                         _______ _______ _______ _____ _____    ______ ____
ROOT
ATOM      1  O   HOH     1     -69.589 -21.723 -15.894  0.00  0.00    +0.000 OA
ENDROOT
TORSDOF 0
REMARK  Name = ../refined-set-2016/4avj/4avj_pocket.pdb
REMARK  112 active torsions:
REMARK  status: ('A' for Active; 'I' for Inactive)
REMARK    1  A    between atoms: _1  and  _5
REMARK    2  A    between atoms: _5  and  _6
REMARK    3  A    between atoms: _5  and  _8
REMARK    4  A    between atoms: _8  and  _9
REMARK    5  A    between atoms: _15  and  _17
REMARK    6  A    between atoms: _17  and  _18
REMARK    7  A    between atoms: _22  and  _23
REMARK    8  A    between atoms: _28  and  _30
REMARK    9  A    between atoms: _30  and  _31
REMARK   10  A    between atoms: _30  and  _33
REMARK   11  A    between atoms: _33  and  _34
REMARK   12  A    between atoms: _37  and  _39
REMARK   13  A    between atoms: _39  and  _40
REMARK   14  A    between atoms: _42  and  _44
REMARK   15  A    between atoms: _44  and  _45
REMARK   16  A    between atoms: _47  and  _49
REMARK   17  A    between atoms: _60  and  _63
REMARK   18  A    between atoms: _63  and  _64
REMARK   19  A    between atoms: _71  and  _72
REMARK   20  A    between atoms: _78  and  _80
REMARK   21  A    between atoms: _80  and  _81
REMARK   22  A    between atoms: _80  and  _83
REMARK   23  A    between atoms: _83  and  _84
REMARK   24  A    between atoms: _89  and  _90
REMARK   25  A    between atoms: _93  and  _94
REMARK   26  A    between atoms: _99  and  _101
REMARK   27  A    between atoms: _101  and  _102
REMARK   28  A    between atoms: _101  and  _104
REMARK   29  A    between atoms: _104  and  _105
REMARK   30  A    between atoms: _105  and  _106
REMARK   31  A    between atoms: _109  and  _111
REMARK   32  A    between atoms: _111  and  _112
REMARK   33  A    between atoms: _111  and  _114
REMARK   34  A    between atoms: _114  and  _115
REMARK   35  A    between atoms: _118  and  _120
REMARK   36  A    between atoms: _120  and  _121
REMARK   37  A    between atoms: _120  and  _123
REMARK   38  A    between atoms: _123  and  _124
REMARK   39  A    between atoms: _127  and  _129
REMARK   40  A    between atoms: _129  and  _130
REMARK   41  A    between atoms: _129  and  _132
REMARK   42  A    between atoms: _132  and  _133
REMARK   43  A    between atoms: _136  and  _138
REMARK   44  A    between atoms: _138  and  _139
REMARK   45  A    between atoms: _138  and  _141
REMARK   46  A    between atoms: _141  and  _142
REMARK   47  A    between atoms: _145  and  _147
REMARK   48  A    between atoms: _147  and  _148
REMARK   49  A    between atoms: _147  and  _150
REMARK   50  A    between atoms: _150  and  _151
REMARK   51  A    between atoms: _156  and  _157
REMARK   52  A    between atoms: _159  and  _161
REMARK   53  A    between atoms: _161  and  _162
REMARK   54  A    between atoms: _161  and  _164
REMARK   55  A    between atoms: _164  and  _165
REMARK   56  A    between atoms: _170  and  _171
REMARK   57  A    between atoms: _173  and  _175
REMARK   58  A    between atoms: _175  and  _176
REMARK   59  A    between atoms: _175  and  _178
REMARK   60  A    between atoms: _178  and  _179
REMARK   61  A    between atoms: _181  and  _183
REMARK   62  A    between atoms: _183  and  _184
REMARK   63  A    between atoms: _183  and  _186
REMARK   64  A    between atoms: _186  and  _187
REMARK   65  A    between atoms: _187  and  _188
REMARK   66  A    between atoms: _188  and  _189
REMARK   67  A    between atoms: _198  and  _200
REMARK   68  A    between atoms: _200  and  _201
REMARK   69  A    between atoms: _200  and  _203
REMARK   70  A    between atoms: _203  and  _204
REMARK   71  A    between atoms: _204  and  _205
REMARK   72  A    between atoms: _210  and  _212
REMARK   73  A    between atoms: _212  and  _213
REMARK   74  A    between atoms: _212  and  _215
REMARK   75  A    between atoms: _215  and  _216
REMARK   76  A    between atoms: _219  and  _221
REMARK   77  A    between atoms: _221  and  _222
REMARK   78  A    between atoms: _221  and  _224
REMARK   79  A    between atoms: _224  and  _225
REMARK   80  A    between atoms: _230  and  _232
REMARK   81  A    between atoms: _232  and  _233
REMARK   82  A    between atoms: _232  and  _235
REMARK   83  A    between atoms: _235  and  _236
REMARK   84  A    between atoms: _241  and  _243
REMARK   85  A    between atoms: _243  and  _244
REMARK   86  A    between atoms: _243  and  _246
REMARK   87  A    between atoms: _246  and  _247
REMARK   88  A    between atoms: _252  and  _253
REMARK   89  A    between atoms: _255  and  _257
REMARK   90  A    between atoms: _257  and  _258
REMARK   91  A    between atoms: _257  and  _260
REMARK   92  A    between atoms: _260  and  _261
REMARK   93  A    between atoms: _266  and  _268
REMARK   94  A    between atoms: _268  and  _269
REMARK   95  A    between atoms: _268  and  _271
REMARK   96  A    between atoms: _271  and  _272
REMARK   97  A    between atoms: _274  and  _276
REMARK   98  A    between atoms: _276  and  _277
REMARK   99  A    between atoms: _276  and  _279
REMARK  100  A    between atoms: _279  and  _280
REMARK  101  A    between atoms: _283  and  _285
REMARK  102  A    between atoms: _285  and  _286
REMARK  103  A    between atoms: _285  and  _288
REMARK  104  A    between atoms: _288  and  _289
REMARK  105  A    between atoms: _292  and  _294
REMARK  106  A    between atoms: _294  and  _295
REMARK  107  A    between atoms: _294  and  _297
REMARK  108  A    between atoms: _297  and  _298
REMARK  109  A    between atoms: _304  and  _306
REMARK  110  A    between atoms: _306  and  _307
REMARK  111  A    between atoms: _306  and  _309
REMARK  112  A    between atoms: _309  and  _310
REMARK                            x       y       z     vdW  Elec       q    Type
REMARK                         _______ _______ _______ _____ _____    ______ ____
ROOT
ATOM      1  O   HOH     1     -71.519 -16.587 -18.355  0.00  0.00    +0.000 OA
ENDROOT
TORSDOF 0
REMARK  Name = ../refined-set-2016/4avj/4avj_pocket.pdb
REMARK  112 active torsions:
REMARK  status: ('A' for Active; 'I' for Inactive)
REMARK    1  A    between atoms: _1  and  _5
REMARK    2  A    between atoms: _5  and  _6
REMARK    3  A    between atoms: _5  and  _8
REMARK    4  A    between atoms: _8  and  _9
REMARK    5  A    between atoms: _15  and  _17
REMARK    6  A    between atoms: _17  and  _18
REMARK    7  A    between atoms: _22  and  _23
REMARK    8  A    between atoms: _28  and  _30
REMARK    9  A    between atoms: _30  and  _31
REMARK   10  A    between atoms: _30  and  _33
REMARK   11  A    between atoms: _33  and  _34
REMARK   12  A    between atoms: _37  and  _39
REMARK   13  A    between atoms: _39  and  _40
REMARK   14  A    between atoms: _42  and  _44
REMARK   15  A    between atoms: _44  and  _45
REMARK   16  A    between atoms: _47  and  _49
REMARK   17  A    between atoms: _60  and  _63
REMARK   18  A    between atoms: _63  and  _64
REMARK   19  A    between atoms: _71  and  _72
REMARK   20  A    between atoms: _78  and  _80
REMARK   21  A    between atoms: _80  and  _81
REMARK   22  A    between atoms: _80  and  _83
REMARK   23  A    between atoms: _83  and  _84
REMARK   24  A    between atoms: _89  and  _90
REMARK   25  A    between atoms: _93  and  _94
REMARK   26  A    between atoms: _99  and  _101
REMARK   27  A    between atoms: _101  and  _102
REMARK   28  A    between atoms: _101  and  _104
REMARK   29  A    between atoms: _104  and  _105
REMARK   30  A    between atoms: _105  and  _106
REMARK   31  A    between atoms: _109  and  _111
REMARK   32  A    between atoms: _111  and  _112
REMARK   33  A    between atoms: _111  and  _114
REMARK   34  A    between atoms: _114  and  _115
REMARK   35  A    between atoms: _118  and  _120
REMARK   36  A    between atoms: _120  and  _121
REMARK   37  A    between atoms: _120  and  _123
REMARK   38  A    between atoms: _123  and  _124
REMARK   39  A    between atoms: _127  and  _129
REMARK   40  A    between atoms: _129  and  _130
REMARK   41  A    between atoms: _129  and  _132
REMARK   42  A    between atoms: _132  and  _133
REMARK   43  A    between atoms: _136  and  _138
REMARK   44  A    between atoms: _138  and  _139
REMARK   45  A    between atoms: _138  and  _141
REMARK   46  A    between atoms: _141  and  _142
REMARK   47  A    between atoms: _145  and  _147
REMARK   48  A    between atoms: _147  and  _148
REMARK   49  A    between atoms: _147  and  _150
REMARK   50  A    between atoms: _150  and  _151
REMARK   51  A    between atoms: _156  and  _157
REMARK   52  A    between atoms: _159  and  _161
REMARK   53  A    between atoms: _161  and  _162
REMARK   54  A    between atoms: _161  and  _164
REMARK   55  A    between atoms: _164  and  _165
REMARK   56  A    between atoms: _170  and  _171
REMARK   57  A    between atoms: _173  and  _175
REMARK   58  A    between atoms: _175  and  _176
REMARK   59  A    between atoms: _175  and  _178
REMARK   60  A    between atoms: _178  and  _179
REMARK   61  A    between atoms: _181  and  _183
REMARK   62  A    between atoms: _183  and  _184
REMARK   63  A    between atoms: _183  and  _186
REMARK   64  A    between atoms: _186  and  _187
REMARK   65  A    between atoms: _187  and  _188
REMARK   66  A    between atoms: _188  and  _189
REMARK   67  A    between atoms: _198  and  _200
REMARK   68  A    between atoms: _200  and  _201
REMARK   69  A    between atoms: _200  and  _203
REMARK   70  A    between atoms: _203  and  _204
REMARK   71  A    between atoms: _204  and  _205
REMARK   72  A    between atoms: _210  and  _212
REMARK   73  A    between atoms: _212  and  _213
REMARK   74  A    between atoms: _212  and  _215
REMARK   75  A    between atoms: _215  and  _216
REMARK   76  A    between atoms: _219  and  _221
REMARK   77  A    between atoms: _221  and  _222
REMARK   78  A    between atoms: _221  and  _224
REMARK   79  A    between atoms: _224  and  _225
REMARK   80  A    between atoms: _230  and  _232
REMARK   81  A    between atoms: _232  and  _233
REMARK   82  A    between atoms: _232  and  _235
REMARK   83  A    between atoms: _235  and  _236
REMARK   84  A    between atoms: _241  and  _243
REMARK   85  A    between atoms: _243  and  _244
REMARK   86  A    between atoms: _243  and  _246
REMARK   87  A    between atoms: _246  and  _247
REMARK   88  A    between atoms: _252  and  _253
REMARK   89  A    between atoms: _255  and  _257
REMARK   90  A    between atoms: _257  and  _258
REMARK   91  A    between atoms: _257  and  _260
REMARK   92  A    between atoms: _260  and  _261
REMARK   93  A    between atoms: _266  and  _268
REMARK   94  A    between atoms: _268  and  _269
REMARK   95  A    between atoms: _268  and  _271
REMARK   96  A    between atoms: _271  and  _272
REMARK   97  A    between atoms: _274  and  _276
REMARK   98  A    between atoms: _276  and  _277
REMARK   99  A    between atoms: _276  and  _279
REMARK  100  A    between atoms: _279  and  _280
REMARK  101  A    between atoms: _283  and  _285
REMARK  102  A    between atoms: _285  and  _286
REMARK  103  A    between atoms: _285  and  _288
REMARK  104  A    between atoms: _288  and  _289
REMARK  105  A    between atoms: _292  and  _294
REMARK  106  A    between atoms: _294  and  _295
REMARK  107  A    between atoms: _294  and  _297
REMARK  108  A    between atoms: _297  and  _298
REMARK  109  A    between atoms: _304  and  _306
REMARK  110  A    between atoms: _306  and  _307
REMARK  111  A    between atoms: _306  and  _309
REMARK  112  A    between atoms: _309  and  _310
REMARK                            x       y       z     vdW  Elec       q    Type
REMARK                         _______ _______ _______ _____ _____    ______ ____
ROOT
ATOM      1  O   HOH     1     -63.770 -22.811 -21.306  0.00  0.00    +0.000 OA
ENDROOT
TORSDOF 0
REMARK  Name = ../refined-set-2016/4avj/4avj_pocket.pdb
REMARK  112 active torsions:
REMARK  status: ('A' for Active; 'I' for Inactive)
REMARK    1  A    between atoms: _1  and  _5
REMARK    2  A    between atoms: _5  and  _6
REMARK    3  A    between atoms: _5  and  _8
REMARK    4  A    between atoms: _8  and  _9
REMARK    5  A    between atoms: _15  and  _17
REMARK    6  A    between atoms: _17  and  _18
REMARK    7  A    between atoms: _22  and  _23
REMARK    8  A    between atoms: _28  and  _30
REMARK    9  A    between atoms: _30  and  _31
REMARK   10  A    between atoms: _30  and  _33
REMARK   11  A    between atoms: _33  and  _34
REMARK   12  A    between atoms: _37  and  _39
REMARK   13  A    between atoms: _39  and  _40
REMARK   14  A    between atoms: _42  and  _44
REMARK   15  A    between atoms: _44  and  _45
REMARK   16  A    between atoms: _47  and  _49
REMARK   17  A    between atoms: _60  and  _63
REMARK   18  A    between atoms: _63  and  _64
REMARK   19  A    between atoms: _71  and  _72
REMARK   20  A    between atoms: _78  and  _80
REMARK   21  A    between atoms: _80  and  _81
REMARK   22  A    between atoms: _80  and  _83
REMARK   23  A    between atoms: _83  and  _84
REMARK   24  A    between atoms: _89  and  _90
REMARK   25  A    between atoms: _93  and  _94
REMARK   26  A    between atoms: _99  and  _101
REMARK   27  A    between atoms: _101  and  _102
REMARK   28  A    between atoms: _101  and  _104
REMARK   29  A    between atoms: _104  and  _105
REMARK   30  A    between atoms: _105  and  _106
REMARK   31  A    between atoms: _109  and  _111
REMARK   32  A    between atoms: _111  and  _112
REMARK   33  A    between atoms: _111  and  _114
REMARK   34  A    between atoms: _114  and  _115
REMARK   35  A    between atoms: _118  and  _120
REMARK   36  A    between atoms: _120  and  _121
REMARK   37  A    between atoms: _120  and  _123
REMARK   38  A    between atoms: _123  and  _124
REMARK   39  A    between atoms: _127  and  _129
REMARK   40  A    between atoms: _129  and  _130
REMARK   41  A    between atoms: _129  and  _132
REMARK   42  A    between atoms: _132  and  _133
REMARK   43  A    between atoms: _136  and  _138
REMARK   44  A    between atoms: _138  and  _139
REMARK   45  A    between atoms: _138  and  _141
REMARK   46  A    between atoms: _141  and  _142
REMARK   47  A    between atoms: _145  and  _147
REMARK   48  A    between atoms: _147  and  _148
REMARK   49  A    between atoms: _147  and  _150
REMARK   50  A    between atoms: _150  and  _151
REMARK   51  A    between atoms: _156  and  _157
REMARK   52  A    between atoms: _159  and  _161
REMARK   53  A    between atoms: _161  and  _162
REMARK   54  A    between atoms: _161  and  _164
REMARK   55  A    between atoms: _164  and  _165
REMARK   56  A    between atoms: _170  and  _171
REMARK   57  A    between atoms: _173  and  _175
REMARK   58  A    between atoms: _175  and  _176
REMARK   59  A    between atoms: _175  and  _178
REMARK   60  A    between atoms: _178  and  _179
REMARK   61  A    between atoms: _181  and  _183
REMARK   62  A    between atoms: _183  and  _184
REMARK   63  A    between atoms: _183  and  _186
REMARK   64  A    between atoms: _186  and  _187
REMARK   65  A    between atoms: _187  and  _188
REMARK   66  A    between atoms: _188  and  _189
REMARK   67  A    between atoms: _198  and  _200
REMARK   68  A    between atoms: _200  and  _201
REMARK   69  A    between atoms: _200  and  _203
REMARK   70  A    between atoms: _203  and  _204
REMARK   71  A    between atoms: _204  and  _205
REMARK   72  A    between atoms: _210  and  _212
REMARK   73  A    between atoms: _212  and  _213
REMARK   74  A    between atoms: _212  and  _215
REMARK   75  A    between atoms: _215  and  _216
REMARK   76  A    between atoms: _219  and  _221
REMARK   77  A    between atoms: _221  and  _222
REMARK   78  A    between atoms: _221  and  _224
REMARK   79  A    between atoms: _224  and  _225
REMARK   80  A    between atoms: _230  and  _232
REMARK   81  A    between atoms: _232  and  _233
REMARK   82  A    between atoms: _232  and  _235
REMARK   83  A    between atoms: _235  and  _236
REMARK   84  A    between atoms: _241  and  _243
REMARK   85  A    between atoms: _243  and  _244
REMARK   86  A    between atoms: _243  and  _246
REMARK   87  A    between atoms: _246  and  _247
REMARK   88  A    between atoms: _252  and  _253
REMARK   89  A    between atoms: _255  and  _257
REMARK   90  A    between atoms: _257  and  _258
REMARK   91  A    between atoms: _257  and  _260
REMARK   92  A    between atoms: _260  and  _261
REMARK   93  A    between atoms: _266  and  _268
REMARK   94  A    between atoms: _268  and  _269
REMARK   95  A    between atoms: _268  and  _271
REMARK   96  A    between atoms: _271  and  _272
REMARK   97  A    between atoms: _274  and  _276
REMARK   98  A    between atoms: _276  and  _277
REMARK   99  A    between atoms: _276  and  _279
REMARK  100  A    between atoms: _279  and  _280
REMARK  101  A    between atoms: _283  and  _285
REMARK  102  A    between atoms: _285  and  _286
REMARK  103  A    between atoms: _285  and  _288
REMARK  104  A    between atoms: _288  and  _289
REMARK  105  A    between atoms: _292  and  _294
REMARK  106  A    between atoms: _294  and  _295
REMARK  107  A    between atoms: _294  and  _297
REMARK  108  A    between atoms: _297  and  _298
REMARK  109  A    between atoms: _304  and  _306
REMARK  110  A    between atoms: _306  and  _307
REMARK  111  A    between atoms: _306  and  _309
REMARK  112  A    between atoms: _309  and  _310
REMARK                            x       y       z     vdW  Elec       q    Type
REMARK                         _______ _______ _______ _____ _____    ______ ____
ROOT
ATOM      1  O   HOH     1     -67.625 -23.453 -19.339  0.00  0.00    +0.000 OA
ENDROOT
TORSDOF 0
REMARK  Name = ../refined-set-2016/4avj/4avj_pocket.pdb
REMARK  112 active torsions:
REMARK  status: ('A' for Active; 'I' for Inactive)
REMARK    1  A    between atoms: _1  and  _5
REMARK    2  A    between atoms: _5  and  _6
REMARK    3  A    between atoms: _5  and  _8
REMARK    4  A    between atoms: _8  and  _9
REMARK    5  A    between atoms: _15  and  _17
REMARK    6  A    between atoms: _17  and  _18
REMARK    7  A    between atoms: _22  and  _23
REMARK    8  A    between atoms: _28  and  _30
REMARK    9  A    between atoms: _30  and  _31
REMARK   10  A    between atoms: _30  and  _33
REMARK   11  A    between atoms: _33  and  _34
REMARK   12  A    between atoms: _37  and  _39
REMARK   13  A    between atoms: _39  and  _40
REMARK   14  A    between atoms: _42  and  _44
REMARK   15  A    between atoms: _44  and  _45
REMARK   16  A    between atoms: _47  and  _49
REMARK   17  A    between atoms: _60  and  _63
REMARK   18  A    between atoms: _63  and  _64
REMARK   19  A    between atoms: _71  and  _72
REMARK   20  A    between atoms: _78  and  _80
REMARK   21  A    between atoms: _80  and  _81
REMARK   22  A    between atoms: _80  and  _83
REMARK   23  A    between atoms: _83  and  _84
REMARK   24  A    between atoms: _89  and  _90
REMARK   25  A    between atoms: _93  and  _94
REMARK   26  A    between atoms: _99  and  _101
REMARK   27  A    between atoms: _101  and  _102
REMARK   28  A    between atoms: _101  and  _104
REMARK   29  A    between atoms: _104  and  _105
REMARK   30  A    between atoms: _105  and  _106
REMARK   31  A    between atoms: _109  and  _111
REMARK   32  A    between atoms: _111  and  _112
REMARK   33  A    between atoms: _111  and  _114
REMARK   34  A    between atoms: _114  and  _115
REMARK   35  A    between atoms: _118  and  _120
REMARK   36  A    between atoms: _120  and  _121
REMARK   37  A    between atoms: _120  and  _123
REMARK   38  A    between atoms: _123  and  _124
REMARK   39  A    between atoms: _127  and  _129
REMARK   40  A    between atoms: _129  and  _130
REMARK   41  A    between atoms: _129  and  _132
REMARK   42  A    between atoms: _132  and  _133
REMARK   43  A    between atoms: _136  and  _138
REMARK   44  A    between atoms: _138  and  _139
REMARK   45  A    between atoms: _138  and  _141
REMARK   46  A    between atoms: _141  and  _142
REMARK   47  A    between atoms: _145  and  _147
REMARK   48  A    between atoms: _147  and  _148
REMARK   49  A    between atoms: _147  and  _150
REMARK   50  A    between atoms: _150  and  _151
REMARK   51  A    between atoms: _156  and  _157
REMARK   52  A    between atoms: _159  and  _161
REMARK   53  A    between atoms: _161  and  _162
REMARK   54  A    between atoms: _161  and  _164
REMARK   55  A    between atoms: _164  and  _165
REMARK   56  A    between atoms: _170  and  _171
REMARK   57  A    between atoms: _173  and  _175
REMARK   58  A    between atoms: _175  and  _176
REMARK   59  A    between atoms: _175  and  _178
REMARK   60  A    between atoms: _178  and  _179
REMARK   61  A    between atoms: _181  and  _183
REMARK   62  A    between atoms: _183  and  _184
REMARK   63  A    between atoms: _183  and  _186
REMARK   64  A    between atoms: _186  and  _187
REMARK   65  A    between atoms: _187  and  _188
REMARK   66  A    between atoms: _188  and  _189
REMARK   67  A    between atoms: _198  and  _200
REMARK   68  A    between atoms: _200  and  _201
REMARK   69  A    between atoms: _200  and  _203
REMARK   70  A    between atoms: _203  and  _204
REMARK   71  A    between atoms: _204  and  _205
REMARK   72  A    between atoms: _210  and  _212
REMARK   73  A    between atoms: _212  and  _213
REMARK   74  A    between atoms: _212  and  _215
REMARK   75  A    between atoms: _215  and  _216
REMARK   76  A    between atoms: _219  and  _221
REMARK   77  A    between atoms: _221  and  _222
REMARK   78  A    between atoms: _221  and  _224
REMARK   79  A    between atoms: _224  and  _225
REMARK   80  A    between atoms: _230  and  _232
REMARK   81  A    between atoms: _232  and  _233
REMARK   82  A    between atoms: _232  and  _235
REMARK   83  A    between atoms: _235  and  _236
REMARK   84  A    between atoms: _241  and  _243
REMARK   85  A    between atoms: _243  and  _244
REMARK   86  A    between atoms: _243  and  _246
REMARK   87  A    between atoms: _246  and  _247
REMARK   88  A    between atoms: _252  and  _253
REMARK   89  A    between atoms: _255  and  _257
REMARK   90  A    between atoms: _257  and  _258
REMARK   91  A    between atoms: _257  and  _260
REMARK   92  A    between atoms: _260  and  _261
REMARK   93  A    between atoms: _266  and  _268
REMARK   94  A    between atoms: _268  and  _269
REMARK   95  A    between atoms: _268  and  _271
REMARK   96  A    between atoms: _271  and  _272
REMARK   97  A    between atoms: _274  and  _276
REMARK   98  A    between atoms: _276  and  _277
REMARK   99  A    between atoms: _276  and  _279
REMARK  100  A    between atoms: _279  and  _280
REMARK  101  A    between atoms: _283  and  _285
REMARK  102  A    between atoms: _285  and  _286
REMARK  103  A    between atoms: _285  and  _288
REMARK  104  A    between atoms: _288  and  _289
REMARK  105  A    between atoms: _292  and  _294
REMARK  106  A    between atoms: _294  and  _295
REMARK  107  A    between atoms: _294  and  _297
REMARK  108  A    between atoms: _297  and  _298
REMARK  109  A    between atoms: _304  and  _306
REMARK  110  A    between atoms: _306  and  _307
REMARK  111  A    between atoms: _306  and  _309
REMARK  112  A    between atoms: _309  and  _310
REMARK                            x       y       z     vdW  Elec       q    Type
REMARK                         _______ _______ _______ _____ _____    ______ ____
ROOT
ATOM      1  O   HOH     1     -61.948 -24.204 -22.726  0.00  0.00    +0.000 OA
ENDROOT
TORSDOF 0
