REMARK  Name = ../refined-set-2016/3umq/3umq_pocket.pdb
REMARK  100 active torsions:
REMARK  status: ('A' for Active; 'I' for Inactive)
REMARK    1  A    between atoms: _1  and  _3
REMARK    2  A    between atoms: _3  and  _4
REMARK    3  A    between atoms: _7  and  _9
REMARK    4  A    between atoms: _9  and  _10
REMARK    5  A    between atoms: _9  and  _12
REMARK    6  A    between atoms: _12  and  _13
REMARK    7  A    between atoms: _13  and  _80
REMARK    8  A    between atoms: _14  and  _16
REMARK    9  A    between atoms: _16  and  _17
REMARK   10  A    between atoms: _19  and  _21
REMARK   11  A    between atoms: _21  and  _22
REMARK   12  A    between atoms: _21  and  _24
REMARK   13  A    between atoms: _24  and  _25
REMARK   14  A    between atoms: _27  and  _29
REMARK   15  A    between atoms: _29  and  _30
REMARK   16  A    between atoms: _29  and  _32
REMARK   17  A    between atoms: _32  and  _33
REMARK   18  A    between atoms: _33  and  _34
REMARK   19  A    between atoms: _39  and  _41
REMARK   20  A    between atoms: _41  and  _42
REMARK   21  A    between atoms: _41  and  _44
REMARK   22  A    between atoms: _44  and  _45
REMARK   23  A    between atoms: _50  and  _52
REMARK   24  A    between atoms: _52  and  _53
REMARK   25  A    between atoms: _52  and  _55
REMARK   26  A    between atoms: _55  and  _56
REMARK   27  A    between atoms: _59  and  _61
REMARK   28  A    between atoms: _61  and  _62
REMARK   29  A    between atoms: _61  and  _64
REMARK   30  A    between atoms: _64  and  _65
REMARK   31  A    between atoms: _68  and  _70
REMARK   32  A    between atoms: _70  and  _71
REMARK   33  A    between atoms: _74  and  _76
REMARK   34  A    between atoms: _76  and  _77
REMARK   35  A    between atoms: _76  and  _79
REMARK   36  A    between atoms: _79  and  _80
REMARK   37  A    between atoms: _81  and  _83
REMARK   38  A    between atoms: _83  and  _84
REMARK   39  A    between atoms: _86  and  _88
REMARK   40  A    between atoms: _88  and  _89
REMARK   41  A    between atoms: _88  and  _91
REMARK   42  A    between atoms: _94  and  _96
REMARK   43  A    between atoms: _96  and  _97
REMARK   44  A    between atoms: _100  and  _102
REMARK   45  A    between atoms: _102  and  _103
REMARK   46  A    between atoms: _102  and  _105
REMARK   47  A    between atoms: _105  and  _106
REMARK   48  A    between atoms: _110  and  _111
REMARK   49  A    between atoms: _116  and  _118
REMARK   50  A    between atoms: _118  and  _119
REMARK   51  A    between atoms: _122  and  _124
REMARK   52  A    between atoms: _124  and  _125
REMARK   53  A    between atoms: _124  and  _127
REMARK   54  A    between atoms: _127  and  _128
REMARK   55  A    between atoms: _128  and  _165
REMARK   56  A    between atoms: _129  and  _131
REMARK   57  A    between atoms: _131  and  _132
REMARK   58  A    between atoms: _134  and  _136
REMARK   59  A    between atoms: _136  and  _137
REMARK   60  A    between atoms: _136  and  _139
REMARK   61  A    between atoms: _139  and  _140
REMARK   62  A    between atoms: _142  and  _144
REMARK   63  A    between atoms: _144  and  _145
REMARK   64  A    between atoms: _144  and  _147
REMARK   65  A    between atoms: _147  and  _148
REMARK   66  A    between atoms: _153  and  _155
REMARK   67  A    between atoms: _155  and  _156
REMARK   68  A    between atoms: _159  and  _161
REMARK   69  A    between atoms: _161  and  _162
REMARK   70  A    between atoms: _161  and  _164
REMARK   71  A    between atoms: _164  and  _165
REMARK   72  A    between atoms: _166  and  _168
REMARK   73  A    between atoms: _168  and  _169
REMARK   74  A    between atoms: _171  and  _173
REMARK   75  A    between atoms: _173  and  _174
REMARK   76  A    between atoms: _173  and  _176
REMARK   77  A    between atoms: _179  and  _181
REMARK   78  A    between atoms: _181  and  _182
REMARK   79  A    between atoms: _185  and  _187
REMARK   80  A    between atoms: _187  and  _188
REMARK   81  A    between atoms: _187  and  _190
REMARK   82  A    between atoms: _190  and  _191
REMARK   83  A    between atoms: _194  and  _196
REMARK   84  A    between atoms: _196  and  _197
REMARK   85  A    between atoms: _199  and  _201
REMARK   86  A    between atoms: _201  and  _202
REMARK   87  A    between atoms: _201  and  _204
REMARK   88  A    between atoms: _204  and  _205
REMARK   89  A    between atoms: _205  and  _206
REMARK   90  A    between atoms: _206  and  _207
REMARK   91  A    between atoms: _216  and  _218
REMARK   92  A    between atoms: _218  and  _219
REMARK   93  A    between atoms: _218  and  _221
REMARK   94  A    between atoms: _221  and  _222
REMARK   95  A    between atoms: _222  and  _223
REMARK   96  A    between atoms: _223  and  _224
REMARK   97  A    between atoms: _233  and  _235
REMARK   98  A    between atoms: _235  and  _236
REMARK   99  A    between atoms: _235  and  _238
REMARK  100  A    between atoms: _238  and  _239
REMARK                            x       y       z     vdW  Elec       q    Type
REMARK                         _______ _______ _______ _____ _____    ______ ____
ROOT
ATOM      1  CA  CYS A   6     -33.752 -30.374 -43.902  0.00  0.00    +0.160 C 
ENDROOT
BRANCH   1   2
ATOM      2  N   CYS A   6     -32.781 -29.479 -43.261  0.00  0.00    -0.296 N 
ATOM      3  C   ALA A   5     -32.987 -29.043 -42.016  0.00  0.00    +0.241 C 
ATOM      4  O   ALA A   5     -33.986 -29.361 -41.370  0.00  0.00    -0.273 OA
ATOM      5  H   CYS A   6     -31.929 -29.183 -43.779  0.00  0.00    +0.150 HD
BRANCH   3   6
ATOM      6  CA  ALA A   5     -31.900 -28.157 -41.368  0.00  0.00    +0.149 C 
ATOM      7  CB  ALA A   5     -32.029 -26.680 -41.815  0.00  0.00    +0.031 C 
BRANCH   6   8
ATOM      8  N   ALA A   5     -30.598 -28.717 -41.734  0.00  0.00    -0.297 N 
ATOM      9  C   SER A   4     -30.334 -29.990 -41.429  0.00  0.00    +0.241 C 
ATOM     10  O   SER A   4     -31.133 -30.703 -40.792  0.00  0.00    -0.273 OA
ATOM     11  H   ALA A   5     -29.890 -28.133 -42.224  0.00  0.00    +0.150 HD
BRANCH   9  12
ATOM     12  CA  SER A   4     -29.011 -30.584 -41.921  0.00  0.00    +0.149 C 
BRANCH  12  13
ATOM     13  N   SER A   4     -28.670 -30.201 -43.290  0.00  0.00    -0.297 N 
ATOM     14  H   SER A   4     -27.883 -29.544 -43.463  0.00  0.00    +0.150 HD
ATOM     15  C   GLY A   3     -29.358 -30.687 -44.308  0.00  0.00    +0.241 C 
ATOM     16  O   GLY A   3     -30.325 -31.418 -44.162  0.00  0.00    -0.273 OA
BRANCH  15  17
ATOM     17  CA  GLY A   3     -28.913 -30.275 -45.689  0.00  0.00    +0.149 C 
BRANCH  17  18
ATOM     18  N   GLY A   3     -28.532 -28.873 -45.673  0.00  0.00    -0.297 N 
ATOM     19  C   ASN A   2     -29.391 -27.928 -45.319  0.00  0.00    +0.241 C 
ATOM     20  O   ASN A   2     -30.543 -28.166 -44.991  0.00  0.00    -0.273 OA
ATOM     21  H   GLY A   3     -27.565 -28.605 -45.945  0.00  0.00    +0.150 HD
BRANCH  19  22
ATOM     22  CA  ASN A   2     -28.870 -26.503 -45.353  0.00  0.00    +0.158 C 
BRANCH  22  23
ATOM     23  N   ASN A   2     -27.506 -26.422 -44.864  0.00  0.00    -0.297 N 
ATOM     24  C   GLN A   1     -27.198 -26.741 -43.616  0.00  0.00    +0.238 C 
ATOM     25  O   GLN A   1     -28.035 -27.053 -42.794  0.00  0.00    -0.274 OA
ATOM     26  H   ASN A   2     -26.753 -26.106 -45.508  0.00  0.00    +0.150 HD
BRANCH  24  27
ATOM     27  CA  GLN A   1     -25.725 -26.696 -43.233  0.00  0.00    +0.145 C 
BRANCH  27  28
ATOM     28  N   GLN A   1     -24.819 -27.149 -44.281  0.00  0.00    -0.238 NA
ATOM     29  H   GLN A   1     -24.135 -26.481 -44.690  0.00  0.00    +0.142 HD
ENDBRANCH  27  28
BRANCH  27  30
ATOM     30  CB  GLN A   1     -25.308 -25.329 -42.685  0.00  0.00    +0.036 C 
BRANCH  30  31
ATOM     31  CG  GLN A   1     -24.031 -25.387 -41.857  0.00  0.00    +0.087 C 
BRANCH  31  32
ATOM     32  CD  GLN A   1     -23.677 -24.069 -41.210  0.00  0.00    +0.219 C 
ATOM     33  NE2 GLN A   1     -23.947 -23.956 -39.923  0.00  0.00    -0.329 N 
ATOM     34 HE21 GLN A   1     -24.385 -24.749 -39.412  0.00  0.00    +0.145 HD
ATOM     35 HE22 GLN A   1     -23.722 -23.074 -39.420  0.00  0.00    +0.145 HD
ATOM     36  OE1 GLN A   1     -23.162 -23.166 -41.859  0.00  0.00    -0.275 OA
ENDBRANCH  31  32
ENDBRANCH  30  31
ENDBRANCH  27  30
ENDBRANCH  24  27
ENDBRANCH  22  23
BRANCH  22  37
ATOM     37  CB  ASN A   2     -28.956 -25.973 -46.772  0.00  0.00    +0.114 C 
BRANCH  37  38
ATOM     38  CG  ASN A   2     -29.679 -24.655 -46.854  0.00  0.00    +0.222 C 
ATOM     39  OD1 ASN A   2     -29.933 -24.005 -45.840  0.00  0.00    -0.275 OA
ATOM     40  ND2 ASN A   2     -30.004 -24.243 -48.066  0.00  0.00    -0.329 N 
ATOM     41 HD21 ASN A   2     -30.495 -23.335 -48.192  0.00  0.00    +0.145 HD
ATOM     42 HD22 ASN A   2     -29.769 -24.827 -48.894  0.00  0.00    +0.145 HD
ENDBRANCH  37  38
ENDBRANCH  22  37
ENDBRANCH  19  22
ENDBRANCH  17  18
BRANCH  17  43
ATOM     43  CB  GLY A   3     -27.745 -31.151 -46.140  0.00  0.00    +0.029 C 
BRANCH  43  44
ATOM     44  CG  GLY A   3     -27.736 -32.651 -45.840  0.00  0.00    +0.002 C 
ATOM     45  CD2 GLY A   3     -26.335 -33.196 -45.992  0.00  0.00    +0.000 C 
ATOM     46  CD1 GLY A   3     -28.683 -33.406 -46.754  0.00  0.00    +0.000 C 
ENDBRANCH  43  44
ENDBRANCH  17  43
ENDBRANCH  15  17
ENDBRANCH  12  13
BRANCH  12  47
ATOM     47  CB  SER A   4     -27.801 -30.368 -40.947  0.00  0.00    +0.029 C 
BRANCH  47  48
ATOM     48  CG  SER A   4     -26.455 -30.968 -41.463  0.00  0.00    +0.002 C 
ATOM     49  CD2 SER A   4     -25.241 -30.609 -40.605  0.00  0.00    +0.000 C 
ATOM     50  CD1 SER A   4     -26.591 -32.485 -41.618  0.00  0.00    +0.000 C 
ENDBRANCH  47  48
ENDBRANCH  12  47
ENDBRANCH   9  12
ENDBRANCH   6   8
ENDBRANCH   3   6
ENDBRANCH   1   2
BRANCH   1  51
ATOM     51  C   CYS A   6     -33.897 -31.710 -43.169  0.00  0.00    +0.242 C 
ATOM     52  N   GLY A   7     -32.786 -32.255 -42.682  0.00  0.00    -0.295 N 
ATOM     53  H   GLY A   7     -31.864 -31.806 -42.852  0.00  0.00    +0.150 HD
ATOM     54  O   CYS A   6     -35.015 -32.210 -42.994  0.00  0.00    -0.273 OA
BRANCH  52  55
ATOM     55  CA  GLY A   7     -32.871 -33.481 -41.911  0.00  0.00    +0.176 C 
BRANCH  55  56
ATOM     56  C   GLY A   7     -33.798 -33.262 -40.736  0.00  0.00    +0.243 C 
ATOM     57  N   VAL A   8     -33.645 -32.114 -40.096  0.00  0.00    -0.297 N 
ATOM     58  H   VAL A   8     -32.919 -31.433 -40.396  0.00  0.00    +0.150 HD
ATOM     59  O   GLY A   7     -34.659 -34.091 -40.426  0.00  0.00    -0.273 OA
BRANCH  57  60
ATOM     60  CA  VAL A   8     -34.504 -31.825 -38.975  0.00  0.00    +0.149 C 
BRANCH  60  61
ATOM     61  C   VAL A   8     -35.935 -31.599 -39.462  0.00  0.00    +0.241 C 
ATOM     62  O   VAL A   8     -36.876 -32.116 -38.860  0.00  0.00    -0.273 OA
ATOM     63  N   ALA A   9     -36.100 -30.843 -40.549  0.00  0.00    -0.297 N 
ATOM     64  H   ALA A   9     -35.262 -30.453 -41.026  0.00  0.00    +0.150 HD
BRANCH  63  65
ATOM     65  CA  ALA A   9     -37.435 -30.547 -41.090  0.00  0.00    +0.149 C 
ATOM     66  CB  ALA A   9     -37.311 -29.761 -42.387  0.00  0.00    +0.031 C 
BRANCH  65  67
ATOM     67  C   ALA A   9     -38.169 -31.869 -41.324  0.00  0.00    +0.241 C 
ATOM     68  O   ALA A   9     -39.320 -32.045 -40.913  0.00  0.00    -0.273 OA
ATOM     69  N   LEU A  10     -37.462 -32.799 -41.956  0.00  0.00    -0.298 N 
ATOM     70  H   LEU A  10     -36.500 -32.553 -42.265  0.00  0.00    +0.150 HD
BRANCH  69  71
ATOM     71  CA  LEU A  10     -37.948 -34.138 -42.243  0.00  0.00    +0.137 C 
BRANCH  71  72
ATOM     72  C   LEU A  10     -38.145 -35.080 -41.050  0.00  0.00    +0.227 C 
ATOM     73  O   LEU A  10     -38.845 -36.082 -41.178  0.00  0.00    -0.286 OA
ENDBRANCH  71  72
BRANCH  71  74
ATOM     74  CB  LEU A  10     -36.980 -34.815 -43.192  0.00  0.00    +0.028 C 
BRANCH  74  75
ATOM     75  CG  LEU A  10     -36.926 -34.296 -44.614  0.00  0.00    +0.002 C 
ATOM     76  CD2 LEU A  10     -38.346 -34.149 -45.169  0.00  0.00    +0.000 C 
ATOM     77  CD1 LEU A  10     -36.117 -35.295 -45.428  0.00  0.00    +0.000 C 
ENDBRANCH  74  75
ENDBRANCH  71  74
ENDBRANCH  69  71
ENDBRANCH  65  67
ENDBRANCH  63  65
ENDBRANCH  60  61
BRANCH  60  78
ATOM     78  CB  VAL A   8     -34.034 -30.583 -38.180  0.00  0.00    +0.027 C 
ATOM     79  CG2 VAL A   8     -34.780 -30.523 -36.863  0.00  0.00    +0.002 C 
ATOM     80  CG1 VAL A   8     -32.544 -30.664 -37.906  0.00  0.00    +0.002 C 
ENDBRANCH  60  78
ENDBRANCH  57  60
ENDBRANCH  55  56
ENDBRANCH  52  55
ENDBRANCH   1  51
BRANCH   1  81
ATOM     81  CB  CYS A   6     -33.417 -30.552 -45.370  0.00  0.00    +0.098 C 
BRANCH  81  82
ATOM     82  SG  CYS A   6     -33.858 -29.009 -46.230  0.00  0.00    -0.080 S 
BRANCH  82  83
ATOM     83  SG  ASN A   2     -35.728 -28.602 -45.532  0.00  0.00    -0.080 S 
BRANCH  83  84
ATOM     84  CB  ASN A   2     -36.766 -29.875 -46.344  0.00  0.00    +0.098 C 
BRANCH  84  85
ATOM     85  CA  ASN A   2     -36.852 -29.730 -47.877  0.00  0.00    +0.160 C 
BRANCH  85  86
ATOM     86  C   ASN A   2     -35.457 -29.946 -48.487  0.00  0.00    +0.242 C 
ATOM     87  O   ASN A   2     -34.886 -31.031 -48.402  0.00  0.00    -0.273 OA
ATOM     88  N   GLY A   3     -34.940 -28.879 -49.106  0.00  0.00    -0.295 N 
ATOM     89  H   GLY A   3     -35.524 -28.021 -49.178  0.00  0.00    +0.150 HD
BRANCH  88  90
ATOM     90  CA  GLY A   3     -33.604 -28.853 -49.684  0.00  0.00    +0.176 C 
BRANCH  90  91
ATOM     91  C   GLY A   3     -33.447 -29.439 -51.067  0.00  0.00    +0.243 C 
ATOM     92  O   GLY A   3     -34.359 -30.109 -51.555  0.00  0.00    -0.273 OA
ATOM     93  N   SER A   4     -32.311 -29.139 -51.704  0.00  0.00    -0.296 N 
ATOM     94  H   SER A   4     -31.651 -28.477 -51.248  0.00  0.00    +0.150 HD
BRANCH  93  95
ATOM     95  CA  SER A   4     -31.943 -29.696 -53.017  0.00  0.00    +0.166 C 
BRANCH  95  96
ATOM     96  CB  SER A   4     -30.727 -30.618 -52.844  0.00  0.00    +0.229 C 
ATOM     97  OG  SER A   4     -29.743 -30.262 -52.155  0.00  0.00    -0.286 OA
ENDBRANCH  95  96
BRANCH  95  98
ATOM     98  C   SER A   4     -31.587 -28.616 -54.032  0.00  0.00    +0.165 C 
BRANCH  98  99
ATOM     99  O   SER A   4     -32.714 -27.835 -54.384  0.00  0.00    -0.380 OA
ATOM    100  H   SER A   4     -32.444 -27.147 -55.043  0.00  0.00    +0.211 HD
ENDBRANCH  98  99
ENDBRANCH  95  98
ENDBRANCH  93  95
ENDBRANCH  90  91
ENDBRANCH  88  90
ENDBRANCH  85  86
BRANCH  85 103
ATOM    101  C   GLN A   1     -39.139 -30.003 -48.507  0.00  0.00    +0.238 C 
ATOM    102  O   GLN A   1     -39.385 -28.879 -48.080  0.00  0.00    -0.274 OA
ATOM    103  N   ASN A   2     -37.935 -30.548 -48.416  0.00  0.00    -0.297 N 
ATOM    104  H   ASN A   2     -37.766 -31.528 -48.719  0.00  0.00    +0.150 HD
BRANCH 101 105
ATOM    105  CA  GLN A   1     -40.227 -30.836 -49.148  0.00  0.00    +0.145 C 
ATOM    106  CB  GLN A   1     -40.091 -30.792 -50.659  0.00  0.00    +0.028 C 
BRANCH 105 107
ATOM    107  N   GLN A   1     -41.554 -30.383 -48.741  0.00  0.00    -0.238 NA
ATOM    108  H   GLN A   1     -42.090 -29.750 -49.368  0.00  0.00    +0.142 HD
ENDBRANCH 105 107
ENDBRANCH 101 105
ENDBRANCH  85 103
ENDBRANCH  84  85
ENDBRANCH  83  84
ENDBRANCH  82  83
ENDBRANCH  81  82
ENDBRANCH   1  81
TORSDOF 47
REMARK  Name = ../refined-set-2016/3umq/3umq_pocket.pdb
REMARK  100 active torsions:
REMARK  status: ('A' for Active; 'I' for Inactive)
REMARK    1  A    between atoms: _1  and  _3
REMARK    2  A    between atoms: _3  and  _4
REMARK    3  A    between atoms: _7  and  _9
REMARK    4  A    between atoms: _9  and  _10
REMARK    5  A    between atoms: _9  and  _12
REMARK    6  A    between atoms: _12  and  _13
REMARK    7  A    between atoms: _13  and  _80
REMARK    8  A    between atoms: _14  and  _16
REMARK    9  A    between atoms: _16  and  _17
REMARK   10  A    between atoms: _19  and  _21
REMARK   11  A    between atoms: _21  and  _22
REMARK   12  A    between atoms: _21  and  _24
REMARK   13  A    between atoms: _24  and  _25
REMARK   14  A    between atoms: _27  and  _29
REMARK   15  A    between atoms: _29  and  _30
REMARK   16  A    between atoms: _29  and  _32
REMARK   17  A    between atoms: _32  and  _33
REMARK   18  A    between atoms: _33  and  _34
REMARK   19  A    between atoms: _39  and  _41
REMARK   20  A    between atoms: _41  and  _42
REMARK   21  A    between atoms: _41  and  _44
REMARK   22  A    between atoms: _44  and  _45
REMARK   23  A    between atoms: _50  and  _52
REMARK   24  A    between atoms: _52  and  _53
REMARK   25  A    between atoms: _52  and  _55
REMARK   26  A    between atoms: _55  and  _56
REMARK   27  A    between atoms: _59  and  _61
REMARK   28  A    between atoms: _61  and  _62
REMARK   29  A    between atoms: _61  and  _64
REMARK   30  A    between atoms: _64  and  _65
REMARK   31  A    between atoms: _68  and  _70
REMARK   32  A    between atoms: _70  and  _71
REMARK   33  A    between atoms: _74  and  _76
REMARK   34  A    between atoms: _76  and  _77
REMARK   35  A    between atoms: _76  and  _79
REMARK   36  A    between atoms: _79  and  _80
REMARK   37  A    between atoms: _81  and  _83
REMARK   38  A    between atoms: _83  and  _84
REMARK   39  A    between atoms: _86  and  _88
REMARK   40  A    between atoms: _88  and  _89
REMARK   41  A    between atoms: _88  and  _91
REMARK   42  A    between atoms: _94  and  _96
REMARK   43  A    between atoms: _96  and  _97
REMARK   44  A    between atoms: _100  and  _102
REMARK   45  A    between atoms: _102  and  _103
REMARK   46  A    between atoms: _102  and  _105
REMARK   47  A    between atoms: _105  and  _106
REMARK   48  A    between atoms: _110  and  _111
REMARK   49  A    between atoms: _116  and  _118
REMARK   50  A    between atoms: _118  and  _119
REMARK   51  A    between atoms: _122  and  _124
REMARK   52  A    between atoms: _124  and  _125
REMARK   53  A    between atoms: _124  and  _127
REMARK   54  A    between atoms: _127  and  _128
REMARK   55  A    between atoms: _128  and  _165
REMARK   56  A    between atoms: _129  and  _131
REMARK   57  A    between atoms: _131  and  _132
REMARK   58  A    between atoms: _134  and  _136
REMARK   59  A    between atoms: _136  and  _137
REMARK   60  A    between atoms: _136  and  _139
REMARK   61  A    between atoms: _139  and  _140
REMARK   62  A    between atoms: _142  and  _144
REMARK   63  A    between atoms: _144  and  _145
REMARK   64  A    between atoms: _144  and  _147
REMARK   65  A    between atoms: _147  and  _148
REMARK   66  A    between atoms: _153  and  _155
REMARK   67  A    between atoms: _155  and  _156
REMARK   68  A    between atoms: _159  and  _161
REMARK   69  A    between atoms: _161  and  _162
REMARK   70  A    between atoms: _161  and  _164
REMARK   71  A    between atoms: _164  and  _165
REMARK   72  A    between atoms: _166  and  _168
REMARK   73  A    between atoms: _168  and  _169
REMARK   74  A    between atoms: _171  and  _173
REMARK   75  A    between atoms: _173  and  _174
REMARK   76  A    between atoms: _173  and  _176
REMARK   77  A    between atoms: _179  and  _181
REMARK   78  A    between atoms: _181  and  _182
REMARK   79  A    between atoms: _185  and  _187
REMARK   80  A    between atoms: _187  and  _188
REMARK   81  A    between atoms: _187  and  _190
REMARK   82  A    between atoms: _190  and  _191
REMARK   83  A    between atoms: _194  and  _196
REMARK   84  A    between atoms: _196  and  _197
REMARK   85  A    between atoms: _199  and  _201
REMARK   86  A    between atoms: _201  and  _202
REMARK   87  A    between atoms: _201  and  _204
REMARK   88  A    between atoms: _204  and  _205
REMARK   89  A    between atoms: _205  and  _206
REMARK   90  A    between atoms: _206  and  _207
REMARK   91  A    between atoms: _216  and  _218
REMARK   92  A    between atoms: _218  and  _219
REMARK   93  A    between atoms: _218  and  _221
REMARK   94  A    between atoms: _221  and  _222
REMARK   95  A    between atoms: _222  and  _223
REMARK   96  A    between atoms: _223  and  _224
REMARK   97  A    between atoms: _233  and  _235
REMARK   98  A    between atoms: _235  and  _236
REMARK   99  A    between atoms: _235  and  _238
REMARK  100  A    between atoms: _238  and  _239
REMARK                            x       y       z     vdW  Elec       q    Type
REMARK                         _______ _______ _______ _____ _____    ______ ____
ROOT
ATOM      1  CA  CYS A   2     -37.794 -21.986 -48.432  0.00  0.00    +0.160 C 
ENDROOT
BRANCH   1   2
ATOM      2  N   CYS A   2     -38.562 -22.666 -49.450  0.00  0.00    -0.297 N 
ATOM      3  C   ALA A   1     -39.840 -22.954 -49.257  0.00  0.00    +0.238 C 
ATOM      4  O   ALA A   1     -40.479 -22.575 -48.272  0.00  0.00    -0.274 OA
ATOM      5  H   CYS A   2     -38.105 -22.933 -50.345  0.00  0.00    +0.150 HD
BRANCH   3   6
ATOM      6  CA  ALA A   1     -40.525 -23.736 -50.383  0.00  0.00    +0.145 C 
ATOM      7  CB  ALA A   1     -40.105 -25.203 -50.336  0.00  0.00    +0.028 C 
BRANCH   6   8
ATOM      8  N   ALA A   1     -40.129 -23.126 -51.655  0.00  0.00    -0.238 NA
ATOM      9  H   ALA A   1     -39.515 -23.658 -52.304  0.00  0.00    +0.142 HD
ENDBRANCH   6   8
ENDBRANCH   3   6
ENDBRANCH   1   2
BRANCH   1  10
ATOM     10  C   CYS A   2     -38.509 -20.673 -48.209  0.00  0.00    +0.242 C 
ATOM     11  O   CYS A   2     -38.590 -20.181 -47.083  0.00  0.00    -0.273 OA
ATOM     12  N   GLY A   3     -39.029 -20.100 -49.288  0.00  0.00    -0.295 N 
ATOM     13  H   GLY A   3     -38.944 -20.563 -50.216  0.00  0.00    +0.150 HD
BRANCH  12  14
ATOM     14  CA  GLY A   3     -39.714 -18.831 -49.171  0.00  0.00    +0.176 C 
BRANCH  14  15
ATOM     15  C   GLY A   3     -40.980 -18.980 -48.352  0.00  0.00    +0.243 C 
ATOM     16  O   GLY A   3     -41.427 -18.023 -47.718  0.00  0.00    -0.273 OA
ATOM     17  N   GLY A   4     -41.595 -20.159 -48.402  0.00  0.00    -0.297 N 
ATOM     18  H   GLY A   4     -41.225 -20.913 -49.015  0.00  0.00    +0.150 HD
BRANCH  17  19
ATOM     19  CA  GLY A   4     -42.795 -20.394 -47.591  0.00  0.00    +0.149 C 
BRANCH  19  20
ATOM     20  C   GLY A   4     -42.331 -20.545 -46.150  0.00  0.00    +0.241 C 
ATOM     21  O   GLY A   4     -42.865 -19.894 -45.261  0.00  0.00    -0.273 OA
ATOM     22  N   SER A   5     -41.245 -21.268 -45.961  0.00  0.00    -0.297 N 
ATOM     23  H   SER A   5     -40.743 -21.652 -46.787  0.00  0.00    +0.150 HD
BRANCH  22  24
ATOM     24  CA  SER A   5     -40.733 -21.541 -44.636  0.00  0.00    +0.149 C 
ATOM     25  CB  SER A   5     -39.485 -22.392 -44.733  0.00  0.00    +0.031 C 
BRANCH  24  26
ATOM     26  C   SER A   5     -40.424 -20.215 -43.964  0.00  0.00    +0.241 C 
ATOM     27  O   SER A   5     -40.433 -20.114 -42.742  0.00  0.00    -0.273 OA
ATOM     28  N   LEU A   6     -40.115 -19.210 -44.773  0.00  0.00    -0.297 N 
ATOM     29  H   LEU A   6     -40.125 -19.373 -45.800  0.00  0.00    +0.150 HD
BRANCH  28  30
ATOM     30  CA  LEU A   6     -39.762 -17.885 -44.275  0.00  0.00    +0.149 C 
BRANCH  30  31
ATOM     31  C   LEU A   6     -40.959 -16.955 -44.065  0.00  0.00    +0.241 C 
ATOM     32  O   LEU A   6     -40.821 -15.930 -43.405  0.00  0.00    -0.273 OA
ATOM     33  N   GLY A   7     -42.125 -17.293 -44.614  0.00  0.00    -0.296 N 
ATOM     34  H   GLY A   7     -42.209 -18.178 -45.154  0.00  0.00    +0.150 HD
BRANCH  33  35
ATOM     35  CA  GLY A   7     -43.284 -16.420 -44.456  0.00  0.00    +0.163 C 
BRANCH  35  36
ATOM     36  C   GLY A   7     -43.385 -15.351 -45.540  0.00  0.00    +0.229 C 
ATOM     37  O   GLY A   7     -44.319 -14.541 -45.557  0.00  0.00    -0.286 OA
ENDBRANCH  35  36
ENDBRANCH  33  35
ENDBRANCH  30  31
BRANCH  30  38
ATOM     38  CB  LEU A   6     -38.767 -17.196 -45.222  0.00  0.00    +0.029 C 
BRANCH  38  39
ATOM     39  CG  LEU A   6     -37.275 -17.519 -45.085  0.00  0.00    +0.002 C 
ATOM     40  CD2 LEU A   6     -36.704 -16.969 -43.785  0.00  0.00    +0.000 C 
ATOM     41  CD1 LEU A   6     -36.545 -16.924 -46.273  0.00  0.00    +0.000 C 
ENDBRANCH  38  39
ENDBRANCH  30  38
ENDBRANCH  28  30
ENDBRANCH  24  26
ENDBRANCH  22  24
ENDBRANCH  19  20
BRANCH  19  42
ATOM     42  CB  GLY A   4     -43.602 -21.643 -48.066  0.00  0.00    +0.027 C 
ATOM     43  CG2 GLY A   4     -44.488 -22.180 -46.945  0.00  0.00    +0.002 C 
ATOM     44  CG1 GLY A   4     -44.466 -21.260 -49.261  0.00  0.00    +0.002 C 
ENDBRANCH  19  42
ENDBRANCH  17  19
ENDBRANCH  14  15
ENDBRANCH  12  14
ENDBRANCH   1  10
BRANCH   1  45
ATOM     45  CB  CYS A   2     -36.363 -21.741 -48.906  0.00  0.00    +0.098 C 
BRANCH  45  46
ATOM     46  SG  CYS A   2     -35.734 -20.082 -48.555  0.00  0.00    -0.080 S 
BRANCH  46  47
ATOM     47  SG  GLY A   3     -35.013 -20.644 -46.716  0.00  0.00    -0.080 S 
BRANCH  47  48
ATOM     48  CB  GLY A   3     -34.203 -22.250 -46.590  0.00  0.00    +0.098 C 
BRANCH  48  49
ATOM     49  CA  GLY A   3     -32.693 -22.117 -46.656  0.00  0.00    +0.160 C 
BRANCH  49  50
ATOM     50  C   GLY A   3     -32.318 -21.760 -48.065  0.00  0.00    +0.242 C 
ATOM     51  O   GLY A   3     -32.008 -20.610 -48.343  0.00  0.00    -0.273 OA
ATOM     52  N   GLY A   4     -32.275 -22.760 -48.936  0.00  0.00    -0.295 N 
ATOM     53  H   GLY A   4     -32.450 -23.729 -48.601  0.00  0.00    +0.150 HD
BRANCH  52  54
ATOM     54  CA  GLY A   4     -31.991 -22.540 -50.343  0.00  0.00    +0.176 C 
BRANCH  54  55
ATOM     55  C   GLY A   4     -30.566 -22.554 -50.860  0.00  0.00    +0.243 C 
ATOM     56  N   SER A   5     -29.603 -22.427 -49.941  0.00  0.00    -0.296 N 
ATOM     57  H   SER A   5     -29.873 -22.452 -48.937  0.00  0.00    +0.150 HD
ATOM     58  O   GLY A   4     -30.357 -22.721 -52.075  0.00  0.00    -0.273 OA
BRANCH  56  59
ATOM     59  CA  SER A   5     -28.183 -22.254 -50.276  0.00  0.00    +0.166 C 
BRANCH  59  60
ATOM     60  C   SER A   5     -28.079 -21.166 -51.336  0.00  0.00    +0.229 C 
ATOM     61  O   SER A   5     -27.411 -21.341 -52.355  0.00  0.00    -0.286 OA
ENDBRANCH  59  60
BRANCH  59  62
ATOM     62  CB  SER A   5     -27.526 -23.512 -50.810  0.00  0.00    +0.165 C 
BRANCH  62  63
ATOM     63  OG  SER A   5     -27.233 -24.419 -49.769  0.00  0.00    -0.380 OA
ATOM     64  H   SER A   5     -26.806 -25.228 -50.148  0.00  0.00    +0.211 HD
ENDBRANCH  62  63
ENDBRANCH  59  62
ENDBRANCH  56  59
ENDBRANCH  54  55
ENDBRANCH  52  54
ENDBRANCH  49  50
BRANCH  49  66
ATOM     65  C   CYS A   2     -31.032 -20.657 -45.661  0.00  0.00    +0.241 C 
ATOM     66  N   GLY A   3     -32.292 -20.994 -45.848  0.00  0.00    -0.296 N 
ATOM     67  H   GLY A   3     -33.031 -20.423 -45.391  0.00  0.00    +0.150 HD
ATOM     68  O   CYS A   2     -30.102 -21.193 -46.265  0.00  0.00    -0.273 OA
BRANCH  65  69
ATOM     69  CA  CYS A   2     -30.800 -19.438 -44.754  0.00  0.00    +0.149 C 
ATOM     70  CB  CYS A   2     -31.255 -18.160 -45.503  0.00  0.00    +0.031 C 
BRANCH  69  73
ATOM     71  C   ALA A   1     -28.870 -20.046 -43.367  0.00  0.00    +0.239 C 
ATOM     72  O   ALA A   1     -29.517 -20.877 -42.724  0.00  0.00    -0.274 OA
ATOM     73  N   CYS A   2     -29.401 -19.305 -44.344  0.00  0.00    -0.297 N 
ATOM     74  H   CYS A   2     -28.799 -18.610 -44.830  0.00  0.00    +0.150 HD
BRANCH  71  79
ATOM     75  N   ALA A   1     -26.925 -20.382 -41.786  0.00  0.00    -0.210 NA
ATOM     76  CD  ALA A   1     -25.746 -21.250 -41.982  0.00  0.00    +0.089 C 
ATOM     77  CG  ALA A   1     -25.921 -21.723 -43.394  0.00  0.00    +0.021 C 
ATOM     78  CB  ALA A   1     -26.511 -20.552 -44.114  0.00  0.00    +0.028 C 
ATOM     79  CA  ALA A   1     -27.376 -19.823 -43.075  0.00  0.00    +0.149 C 
ENDBRANCH  71  79
ENDBRANCH  69  73
ENDBRANCH  65  69
ENDBRANCH  49  66
ENDBRANCH  48  49
ENDBRANCH  47  48
ENDBRANCH  46  47
ENDBRANCH  45  46
ENDBRANCH   1  45
TORSDOF 33
REMARK  Name = ../refined-set-2016/3umq/3umq_pocket.pdb
REMARK  100 active torsions:
REMARK  status: ('A' for Active; 'I' for Inactive)
REMARK    1  A    between atoms: _1  and  _3
REMARK    2  A    between atoms: _3  and  _4
REMARK    3  A    between atoms: _7  and  _9
REMARK    4  A    between atoms: _9  and  _10
REMARK    5  A    between atoms: _9  and  _12
REMARK    6  A    between atoms: _12  and  _13
REMARK    7  A    between atoms: _13  and  _80
REMARK    8  A    between atoms: _14  and  _16
REMARK    9  A    between atoms: _16  and  _17
REMARK   10  A    between atoms: _19  and  _21
REMARK   11  A    between atoms: _21  and  _22
REMARK   12  A    between atoms: _21  and  _24
REMARK   13  A    between atoms: _24  and  _25
REMARK   14  A    between atoms: _27  and  _29
REMARK   15  A    between atoms: _29  and  _30
REMARK   16  A    between atoms: _29  and  _32
REMARK   17  A    between atoms: _32  and  _33
REMARK   18  A    between atoms: _33  and  _34
REMARK   19  A    between atoms: _39  and  _41
REMARK   20  A    between atoms: _41  and  _42
REMARK   21  A    between atoms: _41  and  _44
REMARK   22  A    between atoms: _44  and  _45
REMARK   23  A    between atoms: _50  and  _52
REMARK   24  A    between atoms: _52  and  _53
REMARK   25  A    between atoms: _52  and  _55
REMARK   26  A    between atoms: _55  and  _56
REMARK   27  A    between atoms: _59  and  _61
REMARK   28  A    between atoms: _61  and  _62
REMARK   29  A    between atoms: _61  and  _64
REMARK   30  A    between atoms: _64  and  _65
REMARK   31  A    between atoms: _68  and  _70
REMARK   32  A    between atoms: _70  and  _71
REMARK   33  A    between atoms: _74  and  _76
REMARK   34  A    between atoms: _76  and  _77
REMARK   35  A    between atoms: _76  and  _79
REMARK   36  A    between atoms: _79  and  _80
REMARK   37  A    between atoms: _81  and  _83
REMARK   38  A    between atoms: _83  and  _84
REMARK   39  A    between atoms: _86  and  _88
REMARK   40  A    between atoms: _88  and  _89
REMARK   41  A    between atoms: _88  and  _91
REMARK   42  A    between atoms: _94  and  _96
REMARK   43  A    between atoms: _96  and  _97
REMARK   44  A    between atoms: _100  and  _102
REMARK   45  A    between atoms: _102  and  _103
REMARK   46  A    between atoms: _102  and  _105
REMARK   47  A    between atoms: _105  and  _106
REMARK   48  A    between atoms: _110  and  _111
REMARK   49  A    between atoms: _116  and  _118
REMARK   50  A    between atoms: _118  and  _119
REMARK   51  A    between atoms: _122  and  _124
REMARK   52  A    between atoms: _124  and  _125
REMARK   53  A    between atoms: _124  and  _127
REMARK   54  A    between atoms: _127  and  _128
REMARK   55  A    between atoms: _128  and  _165
REMARK   56  A    between atoms: _129  and  _131
REMARK   57  A    between atoms: _131  and  _132
REMARK   58  A    between atoms: _134  and  _136
REMARK   59  A    between atoms: _136  and  _137
REMARK   60  A    between atoms: _136  and  _139
REMARK   61  A    between atoms: _139  and  _140
REMARK   62  A    between atoms: _142  and  _144
REMARK   63  A    between atoms: _144  and  _145
REMARK   64  A    between atoms: _144  and  _147
REMARK   65  A    between atoms: _147  and  _148
REMARK   66  A    between atoms: _153  and  _155
REMARK   67  A    between atoms: _155  and  _156
REMARK   68  A    between atoms: _159  and  _161
REMARK   69  A    between atoms: _161  and  _162
REMARK   70  A    between atoms: _161  and  _164
REMARK   71  A    between atoms: _164  and  _165
REMARK   72  A    between atoms: _166  and  _168
REMARK   73  A    between atoms: _168  and  _169
REMARK   74  A    between atoms: _171  and  _173
REMARK   75  A    between atoms: _173  and  _174
REMARK   76  A    between atoms: _173  and  _176
REMARK   77  A    between atoms: _179  and  _181
REMARK   78  A    between atoms: _181  and  _182
REMARK   79  A    between atoms: _185  and  _187
REMARK   80  A    between atoms: _187  and  _188
REMARK   81  A    between atoms: _187  and  _190
REMARK   82  A    between atoms: _190  and  _191
REMARK   83  A    between atoms: _194  and  _196
REMARK   84  A    between atoms: _196  and  _197
REMARK   85  A    between atoms: _199  and  _201
REMARK   86  A    between atoms: _201  and  _202
REMARK   87  A    between atoms: _201  and  _204
REMARK   88  A    between atoms: _204  and  _205
REMARK   89  A    between atoms: _205  and  _206
REMARK   90  A    between atoms: _206  and  _207
REMARK   91  A    between atoms: _216  and  _218
REMARK   92  A    between atoms: _218  and  _219
REMARK   93  A    between atoms: _218  and  _221
REMARK   94  A    between atoms: _221  and  _222
REMARK   95  A    between atoms: _222  and  _223
REMARK   96  A    between atoms: _223  and  _224
REMARK   97  A    between atoms: _233  and  _235
REMARK   98  A    between atoms: _235  and  _236
REMARK   99  A    between atoms: _235  and  _238
REMARK  100  A    between atoms: _238  and  _239
REMARK                            x       y       z     vdW  Elec       q    Type
REMARK                         _______ _______ _______ _____ _____    ______ ____
ROOT
ATOM      1  CB  ASN A   1     -34.767 -25.790 -53.482  0.00  0.00    +0.110 C 
ENDROOT
BRANCH   1   2
ATOM      2  CG  ASN A   1     -33.975 -25.928 -52.207  0.00  0.00    +0.221 C 
ATOM      3  OD1 ASN A   1     -34.546 -26.041 -51.114  0.00  0.00    -0.275 OA
ATOM      4  ND2 ASN A   1     -32.639 -25.932 -52.335  0.00  0.00    -0.329 N 
ATOM      5 HD21 ASN A   1     -32.036 -26.033 -51.494  0.00  0.00    +0.145 HD
ATOM      6 HD22 ASN A   1     -32.206 -25.834 -53.276  0.00  0.00    +0.145 HD
ENDBRANCH   1   2
BRANCH   1   7
ATOM      7  CA  ASN A   1     -36.280 -25.579 -53.245  0.00  0.00    +0.142 C 
BRANCH   7   8
ATOM      8  N   ASN A   1     -36.930 -25.826 -54.533  0.00  0.00    -0.239 NA
ATOM      9  H   ASN A   1     -36.401 -26.365 -55.248  0.00  0.00    +0.142 HD
ENDBRANCH   7   8
BRANCH   7  10
ATOM     10  C   ASN A   1     -36.535 -24.102 -52.805  0.00  0.00    +0.225 C 
ATOM     11  O   ASN A   1     -37.134 -23.839 -51.747  0.00  0.00    -0.287 OA
ENDBRANCH   7  10
ENDBRANCH   1   7
TORSDOF 4
REMARK  Name = ../refined-set-2016/3umq/3umq_pocket.pdb
REMARK  100 active torsions:
REMARK  status: ('A' for Active; 'I' for Inactive)
REMARK    1  A    between atoms: _1  and  _3
REMARK    2  A    between atoms: _3  and  _4
REMARK    3  A    between atoms: _7  and  _9
REMARK    4  A    between atoms: _9  and  _10
REMARK    5  A    between atoms: _9  and  _12
REMARK    6  A    between atoms: _12  and  _13
REMARK    7  A    between atoms: _13  and  _80
REMARK    8  A    between atoms: _14  and  _16
REMARK    9  A    between atoms: _16  and  _17
REMARK   10  A    between atoms: _19  and  _21
REMARK   11  A    between atoms: _21  and  _22
REMARK   12  A    between atoms: _21  and  _24
REMARK   13  A    between atoms: _24  and  _25
REMARK   14  A    between atoms: _27  and  _29
REMARK   15  A    between atoms: _29  and  _30
REMARK   16  A    between atoms: _29  and  _32
REMARK   17  A    between atoms: _32  and  _33
REMARK   18  A    between atoms: _33  and  _34
REMARK   19  A    between atoms: _39  and  _41
REMARK   20  A    between atoms: _41  and  _42
REMARK   21  A    between atoms: _41  and  _44
REMARK   22  A    between atoms: _44  and  _45
REMARK   23  A    between atoms: _50  and  _52
REMARK   24  A    between atoms: _52  and  _53
REMARK   25  A    between atoms: _52  and  _55
REMARK   26  A    between atoms: _55  and  _56
REMARK   27  A    between atoms: _59  and  _61
REMARK   28  A    between atoms: _61  and  _62
REMARK   29  A    between atoms: _61  and  _64
REMARK   30  A    between atoms: _64  and  _65
REMARK   31  A    between atoms: _68  and  _70
REMARK   32  A    between atoms: _70  and  _71
REMARK   33  A    between atoms: _74  and  _76
REMARK   34  A    between atoms: _76  and  _77
REMARK   35  A    between atoms: _76  and  _79
REMARK   36  A    between atoms: _79  and  _80
REMARK   37  A    between atoms: _81  and  _83
REMARK   38  A    between atoms: _83  and  _84
REMARK   39  A    between atoms: _86  and  _88
REMARK   40  A    between atoms: _88  and  _89
REMARK   41  A    between atoms: _88  and  _91
REMARK   42  A    between atoms: _94  and  _96
REMARK   43  A    between atoms: _96  and  _97
REMARK   44  A    between atoms: _100  and  _102
REMARK   45  A    between atoms: _102  and  _103
REMARK   46  A    between atoms: _102  and  _105
REMARK   47  A    between atoms: _105  and  _106
REMARK   48  A    between atoms: _110  and  _111
REMARK   49  A    between atoms: _116  and  _118
REMARK   50  A    between atoms: _118  and  _119
REMARK   51  A    between atoms: _122  and  _124
REMARK   52  A    between atoms: _124  and  _125
REMARK   53  A    between atoms: _124  and  _127
REMARK   54  A    between atoms: _127  and  _128
REMARK   55  A    between atoms: _128  and  _165
REMARK   56  A    between atoms: _129  and  _131
REMARK   57  A    between atoms: _131  and  _132
REMARK   58  A    between atoms: _134  and  _136
REMARK   59  A    between atoms: _136  and  _137
REMARK   60  A    between atoms: _136  and  _139
REMARK   61  A    between atoms: _139  and  _140
REMARK   62  A    between atoms: _142  and  _144
REMARK   63  A    between atoms: _144  and  _145
REMARK   64  A    between atoms: _144  and  _147
REMARK   65  A    between atoms: _147  and  _148
REMARK   66  A    between atoms: _153  and  _155
REMARK   67  A    between atoms: _155  and  _156
REMARK   68  A    between atoms: _159  and  _161
REMARK   69  A    between atoms: _161  and  _162
REMARK   70  A    between atoms: _161  and  _164
REMARK   71  A    between atoms: _164  and  _165
REMARK   72  A    between atoms: _166  and  _168
REMARK   73  A    between atoms: _168  and  _169
REMARK   74  A    between atoms: _171  and  _173
REMARK   75  A    between atoms: _173  and  _174
REMARK   76  A    between atoms: _173  and  _176
REMARK   77  A    between atoms: _179  and  _181
REMARK   78  A    between atoms: _181  and  _182
REMARK   79  A    between atoms: _185  and  _187
REMARK   80  A    between atoms: _187  and  _188
REMARK   81  A    between atoms: _187  and  _190
REMARK   82  A    between atoms: _190  and  _191
REMARK   83  A    between atoms: _194  and  _196
REMARK   84  A    between atoms: _196  and  _197
REMARK   85  A    between atoms: _199  and  _201
REMARK   86  A    between atoms: _201  and  _202
REMARK   87  A    between atoms: _201  and  _204
REMARK   88  A    between atoms: _204  and  _205
REMARK   89  A    between atoms: _205  and  _206
REMARK   90  A    between atoms: _206  and  _207
REMARK   91  A    between atoms: _216  and  _218
REMARK   92  A    between atoms: _218  and  _219
REMARK   93  A    between atoms: _218  and  _221
REMARK   94  A    between atoms: _221  and  _222
REMARK   95  A    between atoms: _222  and  _223
REMARK   96  A    between atoms: _223  and  _224
REMARK   97  A    between atoms: _233  and  _235
REMARK   98  A    between atoms: _235  and  _236
REMARK   99  A    between atoms: _235  and  _238
REMARK  100  A    between atoms: _238  and  _239
REMARK                            x       y       z     vdW  Elec       q    Type
REMARK                         _______ _______ _______ _____ _____    ______ ____
ROOT
ATOM      1  NE  ARG A   1     -36.238 -19.693 -35.649  0.00  0.00    -0.265 N 
ATOM      2  HE  ARG A   1     -35.204 -19.764 -35.739  0.00  0.00    +0.259 HD
ATOM      3  CZ  ARG A   1     -36.916 -19.215 -36.689  0.00  0.00    +0.342 C 
ATOM      4  NH2 ARG A   1     -38.232 -19.096 -36.640  0.00  0.00    -0.292 N 
ATOM      5 HH21 ARG A   1     -38.748 -19.377 -35.782  0.00  0.00    +0.255 HD
ATOM      6 HH22 ARG A   1     -38.751 -18.721 -37.459  0.00  0.00    +0.255 HD
ATOM      7  NH1 ARG A   1     -36.271 -18.850 -37.779  0.00  0.00    -0.292 N 
ATOM      8 HH11 ARG A   1     -35.236 -18.936 -37.824  0.00  0.00    +0.255 HD
ATOM      9 HH12 ARG A   1     -36.798 -18.476 -38.594  0.00  0.00    +0.255 HD
ENDROOT
BRANCH   1  10
ATOM     10  CD  ARG A   1     -36.838 -20.126 -34.390  0.00  0.00    +0.174 C 
BRANCH  10  11
ATOM     11  CG  ARG A   1     -37.163 -18.971 -33.450  0.00  0.00    +0.045 C 
BRANCH  11  12
ATOM     12  CB  ARG A   1     -35.939 -18.182 -33.006  0.00  0.00    +0.029 C 
BRANCH  12  13
ATOM     13  CA  ARG A   1     -36.271 -16.887 -32.246  0.00  0.00    +0.133 C 
BRANCH  13  14
ATOM     14  N   ARG A   1     -35.108 -15.998 -32.165  0.00  0.00    -0.239 NA
ATOM     15  H   ARG A   1     -34.164 -16.404 -32.327  0.00  0.00    +0.142 HD
ENDBRANCH  13  14
BRANCH  13  16
ATOM     16  C   ARG A   1     -37.024 -17.208 -30.956  0.00  0.00    +0.224 C 
ATOM     17  O   ARG A   1     -38.235 -17.281 -30.965  0.00  0.00    -0.287 OA
ENDBRANCH  13  16
ENDBRANCH  12  13
ENDBRANCH  11  12
ENDBRANCH  10  11
ENDBRANCH   1  10
TORSDOF 6
REMARK  Name = ../refined-set-2016/3umq/3umq_pocket.pdb
REMARK  100 active torsions:
REMARK  status: ('A' for Active; 'I' for Inactive)
REMARK    1  A    between atoms: _1  and  _3
REMARK    2  A    between atoms: _3  and  _4
REMARK    3  A    between atoms: _7  and  _9
REMARK    4  A    between atoms: _9  and  _10
REMARK    5  A    between atoms: _9  and  _12
REMARK    6  A    between atoms: _12  and  _13
REMARK    7  A    between atoms: _13  and  _80
REMARK    8  A    between atoms: _14  and  _16
REMARK    9  A    between atoms: _16  and  _17
REMARK   10  A    between atoms: _19  and  _21
REMARK   11  A    between atoms: _21  and  _22
REMARK   12  A    between atoms: _21  and  _24
REMARK   13  A    between atoms: _24  and  _25
REMARK   14  A    between atoms: _27  and  _29
REMARK   15  A    between atoms: _29  and  _30
REMARK   16  A    between atoms: _29  and  _32
REMARK   17  A    between atoms: _32  and  _33
REMARK   18  A    between atoms: _33  and  _34
REMARK   19  A    between atoms: _39  and  _41
REMARK   20  A    between atoms: _41  and  _42
REMARK   21  A    between atoms: _41  and  _44
REMARK   22  A    between atoms: _44  and  _45
REMARK   23  A    between atoms: _50  and  _52
REMARK   24  A    between atoms: _52  and  _53
REMARK   25  A    between atoms: _52  and  _55
REMARK   26  A    between atoms: _55  and  _56
REMARK   27  A    between atoms: _59  and  _61
REMARK   28  A    between atoms: _61  and  _62
REMARK   29  A    between atoms: _61  and  _64
REMARK   30  A    between atoms: _64  and  _65
REMARK   31  A    between atoms: _68  and  _70
REMARK   32  A    between atoms: _70  and  _71
REMARK   33  A    between atoms: _74  and  _76
REMARK   34  A    between atoms: _76  and  _77
REMARK   35  A    between atoms: _76  and  _79
REMARK   36  A    between atoms: _79  and  _80
REMARK   37  A    between atoms: _81  and  _83
REMARK   38  A    between atoms: _83  and  _84
REMARK   39  A    between atoms: _86  and  _88
REMARK   40  A    between atoms: _88  and  _89
REMARK   41  A    between atoms: _88  and  _91
REMARK   42  A    between atoms: _94  and  _96
REMARK   43  A    between atoms: _96  and  _97
REMARK   44  A    between atoms: _100  and  _102
REMARK   45  A    between atoms: _102  and  _103
REMARK   46  A    between atoms: _102  and  _105
REMARK   47  A    between atoms: _105  and  _106
REMARK   48  A    between atoms: _110  and  _111
REMARK   49  A    between atoms: _116  and  _118
REMARK   50  A    between atoms: _118  and  _119
REMARK   51  A    between atoms: _122  and  _124
REMARK   52  A    between atoms: _124  and  _125
REMARK   53  A    between atoms: _124  and  _127
REMARK   54  A    between atoms: _127  and  _128
REMARK   55  A    between atoms: _128  and  _165
REMARK   56  A    between atoms: _129  and  _131
REMARK   57  A    between atoms: _131  and  _132
REMARK   58  A    between atoms: _134  and  _136
REMARK   59  A    between atoms: _136  and  _137
REMARK   60  A    between atoms: _136  and  _139
REMARK   61  A    between atoms: _139  and  _140
REMARK   62  A    between atoms: _142  and  _144
REMARK   63  A    between atoms: _144  and  _145
REMARK   64  A    between atoms: _144  and  _147
REMARK   65  A    between atoms: _147  and  _148
REMARK   66  A    between atoms: _153  and  _155
REMARK   67  A    between atoms: _155  and  _156
REMARK   68  A    between atoms: _159  and  _161
REMARK   69  A    between atoms: _161  and  _162
REMARK   70  A    between atoms: _161  and  _164
REMARK   71  A    between atoms: _164  and  _165
REMARK   72  A    between atoms: _166  and  _168
REMARK   73  A    between atoms: _168  and  _169
REMARK   74  A    between atoms: _171  and  _173
REMARK   75  A    between atoms: _173  and  _174
REMARK   76  A    between atoms: _173  and  _176
REMARK   77  A    between atoms: _179  and  _181
REMARK   78  A    between atoms: _181  and  _182
REMARK   79  A    between atoms: _185  and  _187
REMARK   80  A    between atoms: _187  and  _188
REMARK   81  A    between atoms: _187  and  _190
REMARK   82  A    between atoms: _190  and  _191
REMARK   83  A    between atoms: _194  and  _196
REMARK   84  A    between atoms: _196  and  _197
REMARK   85  A    between atoms: _199  and  _201
REMARK   86  A    between atoms: _201  and  _202
REMARK   87  A    between atoms: _201  and  _204
REMARK   88  A    between atoms: _204  and  _205
REMARK   89  A    between atoms: _205  and  _206
REMARK   90  A    between atoms: _206  and  _207
REMARK   91  A    between atoms: _216  and  _218
REMARK   92  A    between atoms: _218  and  _219
REMARK   93  A    between atoms: _218  and  _221
REMARK   94  A    between atoms: _221  and  _222
REMARK   95  A    between atoms: _222  and  _223
REMARK   96  A    between atoms: _223  and  _224
REMARK   97  A    between atoms: _233  and  _235
REMARK   98  A    between atoms: _235  and  _236
REMARK   99  A    between atoms: _235  and  _238
REMARK  100  A    between atoms: _238  and  _239
REMARK                            x       y       z     vdW  Elec       q    Type
REMARK                         _______ _______ _______ _____ _____    ______ ____
ROOT
ATOM      1  NE  ARG A   1     -35.531 -15.811 -36.840  0.00  0.00    -0.265 N 
ATOM      2  HE  ARG A   1     -34.685 -16.305 -36.491  0.00  0.00    +0.259 HD
ATOM      3  CZ  ARG A   1     -35.473 -15.251 -38.044  0.00  0.00    +0.342 C 
ATOM      4  NH2 ARG A   1     -36.524 -14.613 -38.540  0.00  0.00    -0.292 N 
ATOM      5 HH21 ARG A   1     -37.402 -14.548 -37.986  0.00  0.00    +0.255 HD
ATOM      6 HH22 ARG A   1     -36.471 -14.177 -39.483  0.00  0.00    +0.255 HD
ATOM      7  NH1 ARG A   1     -34.361 -15.336 -38.756  0.00  0.00    -0.292 N 
ATOM      8 HH11 ARG A   1     -33.536 -15.840 -38.373  0.00  0.00    +0.255 HD
ATOM      9 HH12 ARG A   1     -34.312 -14.899 -39.698  0.00  0.00    +0.255 HD
ENDROOT
BRANCH   1  10
ATOM     10  CD  ARG A   1     -36.707 -15.777 -35.976  0.00  0.00    +0.174 C 
BRANCH  10  11
ATOM     11  CG  ARG A   1     -36.827 -14.457 -35.230  0.00  0.00    +0.045 C 
BRANCH  11  12
ATOM     12  CB  ARG A   1     -38.285 -14.072 -35.044  0.00  0.00    +0.029 C 
BRANCH  12  13
ATOM     13  CA  ARG A   1     -38.502 -12.626 -34.610  0.00  0.00    +0.133 C 
BRANCH  13  14
ATOM     14  N   ARG A   1     -37.798 -12.346 -33.363  0.00  0.00    -0.239 NA
ATOM     15  H   ARG A   1     -37.379 -13.134 -32.829  0.00  0.00    +0.142 HD
ENDBRANCH  13  14
BRANCH  13  16
ATOM     16  C   ARG A   1     -39.990 -12.385 -34.379  0.00  0.00    +0.224 C 
ATOM     17  O   ARG A   1     -40.492 -12.601 -33.275  0.00  0.00    -0.287 OA
ENDBRANCH  13  16
ENDBRANCH  12  13
ENDBRANCH  11  12
ENDBRANCH  10  11
ENDBRANCH   1  10
TORSDOF 6
REMARK  Name = ../refined-set-2016/3umq/3umq_pocket.pdb
REMARK  100 active torsions:
REMARK  status: ('A' for Active; 'I' for Inactive)
REMARK    1  A    between atoms: _1  and  _3
REMARK    2  A    between atoms: _3  and  _4
REMARK    3  A    between atoms: _7  and  _9
REMARK    4  A    between atoms: _9  and  _10
REMARK    5  A    between atoms: _9  and  _12
REMARK    6  A    between atoms: _12  and  _13
REMARK    7  A    between atoms: _13  and  _80
REMARK    8  A    between atoms: _14  and  _16
REMARK    9  A    between atoms: _16  and  _17
REMARK   10  A    between atoms: _19  and  _21
REMARK   11  A    between atoms: _21  and  _22
REMARK   12  A    between atoms: _21  and  _24
REMARK   13  A    between atoms: _24  and  _25
REMARK   14  A    between atoms: _27  and  _29
REMARK   15  A    between atoms: _29  and  _30
REMARK   16  A    between atoms: _29  and  _32
REMARK   17  A    between atoms: _32  and  _33
REMARK   18  A    between atoms: _33  and  _34
REMARK   19  A    between atoms: _39  and  _41
REMARK   20  A    between atoms: _41  and  _42
REMARK   21  A    between atoms: _41  and  _44
REMARK   22  A    between atoms: _44  and  _45
REMARK   23  A    between atoms: _50  and  _52
REMARK   24  A    between atoms: _52  and  _53
REMARK   25  A    between atoms: _52  and  _55
REMARK   26  A    between atoms: _55  and  _56
REMARK   27  A    between atoms: _59  and  _61
REMARK   28  A    between atoms: _61  and  _62
REMARK   29  A    between atoms: _61  and  _64
REMARK   30  A    between atoms: _64  and  _65
REMARK   31  A    between atoms: _68  and  _70
REMARK   32  A    between atoms: _70  and  _71
REMARK   33  A    between atoms: _74  and  _76
REMARK   34  A    between atoms: _76  and  _77
REMARK   35  A    between atoms: _76  and  _79
REMARK   36  A    between atoms: _79  and  _80
REMARK   37  A    between atoms: _81  and  _83
REMARK   38  A    between atoms: _83  and  _84
REMARK   39  A    between atoms: _86  and  _88
REMARK   40  A    between atoms: _88  and  _89
REMARK   41  A    between atoms: _88  and  _91
REMARK   42  A    between atoms: _94  and  _96
REMARK   43  A    between atoms: _96  and  _97
REMARK   44  A    between atoms: _100  and  _102
REMARK   45  A    between atoms: _102  and  _103
REMARK   46  A    between atoms: _102  and  _105
REMARK   47  A    between atoms: _105  and  _106
REMARK   48  A    between atoms: _110  and  _111
REMARK   49  A    between atoms: _116  and  _118
REMARK   50  A    between atoms: _118  and  _119
REMARK   51  A    between atoms: _122  and  _124
REMARK   52  A    between atoms: _124  and  _125
REMARK   53  A    between atoms: _124  and  _127
REMARK   54  A    between atoms: _127  and  _128
REMARK   55  A    between atoms: _128  and  _165
REMARK   56  A    between atoms: _129  and  _131
REMARK   57  A    between atoms: _131  and  _132
REMARK   58  A    between atoms: _134  and  _136
REMARK   59  A    between atoms: _136  and  _137
REMARK   60  A    between atoms: _136  and  _139
REMARK   61  A    between atoms: _139  and  _140
REMARK   62  A    between atoms: _142  and  _144
REMARK   63  A    between atoms: _144  and  _145
REMARK   64  A    between atoms: _144  and  _147
REMARK   65  A    between atoms: _147  and  _148
REMARK   66  A    between atoms: _153  and  _155
REMARK   67  A    between atoms: _155  and  _156
REMARK   68  A    between atoms: _159  and  _161
REMARK   69  A    between atoms: _161  and  _162
REMARK   70  A    between atoms: _161  and  _164
REMARK   71  A    between atoms: _164  and  _165
REMARK   72  A    between atoms: _166  and  _168
REMARK   73  A    between atoms: _168  and  _169
REMARK   74  A    between atoms: _171  and  _173
REMARK   75  A    between atoms: _173  and  _174
REMARK   76  A    between atoms: _173  and  _176
REMARK   77  A    between atoms: _179  and  _181
REMARK   78  A    between atoms: _181  and  _182
REMARK   79  A    between atoms: _185  and  _187
REMARK   80  A    between atoms: _187  and  _188
REMARK   81  A    between atoms: _187  and  _190
REMARK   82  A    between atoms: _190  and  _191
REMARK   83  A    between atoms: _194  and  _196
REMARK   84  A    between atoms: _196  and  _197
REMARK   85  A    between atoms: _199  and  _201
REMARK   86  A    between atoms: _201  and  _202
REMARK   87  A    between atoms: _201  and  _204
REMARK   88  A    between atoms: _204  and  _205
REMARK   89  A    between atoms: _205  and  _206
REMARK   90  A    between atoms: _206  and  _207
REMARK   91  A    between atoms: _216  and  _218
REMARK   92  A    between atoms: _218  and  _219
REMARK   93  A    between atoms: _218  and  _221
REMARK   94  A    between atoms: _221  and  _222
REMARK   95  A    between atoms: _222  and  _223
REMARK   96  A    between atoms: _223  and  _224
REMARK   97  A    between atoms: _233  and  _235
REMARK   98  A    between atoms: _235  and  _236
REMARK   99  A    between atoms: _235  and  _238
REMARK  100  A    between atoms: _238  and  _239
REMARK                            x       y       z     vdW  Elec       q    Type
REMARK                         _______ _______ _______ _____ _____    ______ ____
ROOT
ATOM      1  CB  ASN A   1     -43.140 -16.252 -36.271  0.00  0.00    +0.110 C 
ENDROOT
BRANCH   1   2
ATOM      2  CG  ASN A   1     -41.805 -16.720 -36.800  0.00  0.00    +0.221 C 
ATOM      3  OD1 ASN A   1     -40.766 -16.146 -36.490  0.00  0.00    -0.275 OA
ATOM      4  ND2 ASN A   1     -41.827 -17.772 -37.604  0.00  0.00    -0.329 N 
ATOM      5 HD21 ASN A   1     -42.732 -18.227 -37.840  0.00  0.00    +0.145 HD
ATOM      6 HD22 ASN A   1     -40.940 -18.143 -38.000  0.00  0.00    +0.145 HD
ENDBRANCH   1   2
BRANCH   1   7
ATOM      7  CA  ASN A   1     -43.009 -15.386 -35.018  0.00  0.00    +0.142 C 
BRANCH   7   8
ATOM      8  N   ASN A   1     -42.406 -14.098 -35.337  0.00  0.00    -0.239 NA
ATOM      9  H   ASN A   1     -41.557 -14.087 -35.937  0.00  0.00    +0.142 HD
ENDBRANCH   7   8
BRANCH   7  10
ATOM     10  C   ASN A   1     -42.262 -16.136 -33.909  0.00  0.00    +0.225 C 
ATOM     11  O   ASN A   1     -42.170 -17.353 -33.930  0.00  0.00    -0.287 OA
ENDBRANCH   7  10
ENDBRANCH   1   7
TORSDOF 4
REMARK  Name = ../refined-set-2016/3umq/3umq_pocket.pdb
REMARK  100 active torsions:
REMARK  status: ('A' for Active; 'I' for Inactive)
REMARK    1  A    between atoms: _1  and  _3
REMARK    2  A    between atoms: _3  and  _4
REMARK    3  A    between atoms: _7  and  _9
REMARK    4  A    between atoms: _9  and  _10
REMARK    5  A    between atoms: _9  and  _12
REMARK    6  A    between atoms: _12  and  _13
REMARK    7  A    between atoms: _13  and  _80
REMARK    8  A    between atoms: _14  and  _16
REMARK    9  A    between atoms: _16  and  _17
REMARK   10  A    between atoms: _19  and  _21
REMARK   11  A    between atoms: _21  and  _22
REMARK   12  A    between atoms: _21  and  _24
REMARK   13  A    between atoms: _24  and  _25
REMARK   14  A    between atoms: _27  and  _29
REMARK   15  A    between atoms: _29  and  _30
REMARK   16  A    between atoms: _29  and  _32
REMARK   17  A    between atoms: _32  and  _33
REMARK   18  A    between atoms: _33  and  _34
REMARK   19  A    between atoms: _39  and  _41
REMARK   20  A    between atoms: _41  and  _42
REMARK   21  A    between atoms: _41  and  _44
REMARK   22  A    between atoms: _44  and  _45
REMARK   23  A    between atoms: _50  and  _52
REMARK   24  A    between atoms: _52  and  _53
REMARK   25  A    between atoms: _52  and  _55
REMARK   26  A    between atoms: _55  and  _56
REMARK   27  A    between atoms: _59  and  _61
REMARK   28  A    between atoms: _61  and  _62
REMARK   29  A    between atoms: _61  and  _64
REMARK   30  A    between atoms: _64  and  _65
REMARK   31  A    between atoms: _68  and  _70
REMARK   32  A    between atoms: _70  and  _71
REMARK   33  A    between atoms: _74  and  _76
REMARK   34  A    between atoms: _76  and  _77
REMARK   35  A    between atoms: _76  and  _79
REMARK   36  A    between atoms: _79  and  _80
REMARK   37  A    between atoms: _81  and  _83
REMARK   38  A    between atoms: _83  and  _84
REMARK   39  A    between atoms: _86  and  _88
REMARK   40  A    between atoms: _88  and  _89
REMARK   41  A    between atoms: _88  and  _91
REMARK   42  A    between atoms: _94  and  _96
REMARK   43  A    between atoms: _96  and  _97
REMARK   44  A    between atoms: _100  and  _102
REMARK   45  A    between atoms: _102  and  _103
REMARK   46  A    between atoms: _102  and  _105
REMARK   47  A    between atoms: _105  and  _106
REMARK   48  A    between atoms: _110  and  _111
REMARK   49  A    between atoms: _116  and  _118
REMARK   50  A    between atoms: _118  and  _119
REMARK   51  A    between atoms: _122  and  _124
REMARK   52  A    between atoms: _124  and  _125
REMARK   53  A    between atoms: _124  and  _127
REMARK   54  A    between atoms: _127  and  _128
REMARK   55  A    between atoms: _128  and  _165
REMARK   56  A    between atoms: _129  and  _131
REMARK   57  A    between atoms: _131  and  _132
REMARK   58  A    between atoms: _134  and  _136
REMARK   59  A    between atoms: _136  and  _137
REMARK   60  A    between atoms: _136  and  _139
REMARK   61  A    between atoms: _139  and  _140
REMARK   62  A    between atoms: _142  and  _144
REMARK   63  A    between atoms: _144  and  _145
REMARK   64  A    between atoms: _144  and  _147
REMARK   65  A    between atoms: _147  and  _148
REMARK   66  A    between atoms: _153  and  _155
REMARK   67  A    between atoms: _155  and  _156
REMARK   68  A    between atoms: _159  and  _161
REMARK   69  A    between atoms: _161  and  _162
REMARK   70  A    between atoms: _161  and  _164
REMARK   71  A    between atoms: _164  and  _165
REMARK   72  A    between atoms: _166  and  _168
REMARK   73  A    between atoms: _168  and  _169
REMARK   74  A    between atoms: _171  and  _173
REMARK   75  A    between atoms: _173  and  _174
REMARK   76  A    between atoms: _173  and  _176
REMARK   77  A    between atoms: _179  and  _181
REMARK   78  A    between atoms: _181  and  _182
REMARK   79  A    between atoms: _185  and  _187
REMARK   80  A    between atoms: _187  and  _188
REMARK   81  A    between atoms: _187  and  _190
REMARK   82  A    between atoms: _190  and  _191
REMARK   83  A    between atoms: _194  and  _196
REMARK   84  A    between atoms: _196  and  _197
REMARK   85  A    between atoms: _199  and  _201
REMARK   86  A    between atoms: _201  and  _202
REMARK   87  A    between atoms: _201  and  _204
REMARK   88  A    between atoms: _204  and  _205
REMARK   89  A    between atoms: _205  and  _206
REMARK   90  A    between atoms: _206  and  _207
REMARK   91  A    between atoms: _216  and  _218
REMARK   92  A    between atoms: _218  and  _219
REMARK   93  A    between atoms: _218  and  _221
REMARK   94  A    between atoms: _221  and  _222
REMARK   95  A    between atoms: _222  and  _223
REMARK   96  A    between atoms: _223  and  _224
REMARK   97  A    between atoms: _233  and  _235
REMARK   98  A    between atoms: _235  and  _236
REMARK   99  A    between atoms: _235  and  _238
REMARK  100  A    between atoms: _238  and  _239
REMARK                            x       y       z     vdW  Elec       q    Type
REMARK                         _______ _______ _______ _____ _____    ______ ____
ROOT
ATOM      1  O   HOH     1     -31.679 -23.487 -43.770  0.00  0.00    +0.000 OA
ENDROOT
TORSDOF 0
REMARK  Name = ../refined-set-2016/3umq/3umq_pocket.pdb
REMARK  100 active torsions:
REMARK  status: ('A' for Active; 'I' for Inactive)
REMARK    1  A    between atoms: _1  and  _3
REMARK    2  A    between atoms: _3  and  _4
REMARK    3  A    between atoms: _7  and  _9
REMARK    4  A    between atoms: _9  and  _10
REMARK    5  A    between atoms: _9  and  _12
REMARK    6  A    between atoms: _12  and  _13
REMARK    7  A    between atoms: _13  and  _80
REMARK    8  A    between atoms: _14  and  _16
REMARK    9  A    between atoms: _16  and  _17
REMARK   10  A    between atoms: _19  and  _21
REMARK   11  A    between atoms: _21  and  _22
REMARK   12  A    between atoms: _21  and  _24
REMARK   13  A    between atoms: _24  and  _25
REMARK   14  A    between atoms: _27  and  _29
REMARK   15  A    between atoms: _29  and  _30
REMARK   16  A    between atoms: _29  and  _32
REMARK   17  A    between atoms: _32  and  _33
REMARK   18  A    between atoms: _33  and  _34
REMARK   19  A    between atoms: _39  and  _41
REMARK   20  A    between atoms: _41  and  _42
REMARK   21  A    between atoms: _41  and  _44
REMARK   22  A    between atoms: _44  and  _45
REMARK   23  A    between atoms: _50  and  _52
REMARK   24  A    between atoms: _52  and  _53
REMARK   25  A    between atoms: _52  and  _55
REMARK   26  A    between atoms: _55  and  _56
REMARK   27  A    between atoms: _59  and  _61
REMARK   28  A    between atoms: _61  and  _62
REMARK   29  A    between atoms: _61  and  _64
REMARK   30  A    between atoms: _64  and  _65
REMARK   31  A    between atoms: _68  and  _70
REMARK   32  A    between atoms: _70  and  _71
REMARK   33  A    between atoms: _74  and  _76
REMARK   34  A    between atoms: _76  and  _77
REMARK   35  A    between atoms: _76  and  _79
REMARK   36  A    between atoms: _79  and  _80
REMARK   37  A    between atoms: _81  and  _83
REMARK   38  A    between atoms: _83  and  _84
REMARK   39  A    between atoms: _86  and  _88
REMARK   40  A    between atoms: _88  and  _89
REMARK   41  A    between atoms: _88  and  _91
REMARK   42  A    between atoms: _94  and  _96
REMARK   43  A    between atoms: _96  and  _97
REMARK   44  A    between atoms: _100  and  _102
REMARK   45  A    between atoms: _102  and  _103
REMARK   46  A    between atoms: _102  and  _105
REMARK   47  A    between atoms: _105  and  _106
REMARK   48  A    between atoms: _110  and  _111
REMARK   49  A    between atoms: _116  and  _118
REMARK   50  A    between atoms: _118  and  _119
REMARK   51  A    between atoms: _122  and  _124
REMARK   52  A    between atoms: _124  and  _125
REMARK   53  A    between atoms: _124  and  _127
REMARK   54  A    between atoms: _127  and  _128
REMARK   55  A    between atoms: _128  and  _165
REMARK   56  A    between atoms: _129  and  _131
REMARK   57  A    between atoms: _131  and  _132
REMARK   58  A    between atoms: _134  and  _136
REMARK   59  A    between atoms: _136  and  _137
REMARK   60  A    between atoms: _136  and  _139
REMARK   61  A    between atoms: _139  and  _140
REMARK   62  A    between atoms: _142  and  _144
REMARK   63  A    between atoms: _144  and  _145
REMARK   64  A    between atoms: _144  and  _147
REMARK   65  A    between atoms: _147  and  _148
REMARK   66  A    between atoms: _153  and  _155
REMARK   67  A    between atoms: _155  and  _156
REMARK   68  A    between atoms: _159  and  _161
REMARK   69  A    between atoms: _161  and  _162
REMARK   70  A    between atoms: _161  and  _164
REMARK   71  A    between atoms: _164  and  _165
REMARK   72  A    between atoms: _166  and  _168
REMARK   73  A    between atoms: _168  and  _169
REMARK   74  A    between atoms: _171  and  _173
REMARK   75  A    between atoms: _173  and  _174
REMARK   76  A    between atoms: _173  and  _176
REMARK   77  A    between atoms: _179  and  _181
REMARK   78  A    between atoms: _181  and  _182
REMARK   79  A    between atoms: _185  and  _187
REMARK   80  A    between atoms: _187  and  _188
REMARK   81  A    between atoms: _187  and  _190
REMARK   82  A    between atoms: _190  and  _191
REMARK   83  A    between atoms: _194  and  _196
REMARK   84  A    between atoms: _196  and  _197
REMARK   85  A    between atoms: _199  and  _201
REMARK   86  A    between atoms: _201  and  _202
REMARK   87  A    between atoms: _201  and  _204
REMARK   88  A    between atoms: _204  and  _205
REMARK   89  A    between atoms: _205  and  _206
REMARK   90  A    between atoms: _206  and  _207
REMARK   91  A    between atoms: _216  and  _218
REMARK   92  A    between atoms: _218  and  _219
REMARK   93  A    between atoms: _218  and  _221
REMARK   94  A    between atoms: _221  and  _222
REMARK   95  A    between atoms: _222  and  _223
REMARK   96  A    between atoms: _223  and  _224
REMARK   97  A    between atoms: _233  and  _235
REMARK   98  A    between atoms: _235  and  _236
REMARK   99  A    between atoms: _235  and  _238
REMARK  100  A    between atoms: _238  and  _239
REMARK                            x       y       z     vdW  Elec       q    Type
REMARK                         _______ _______ _______ _____ _____    ______ ____
ROOT
ATOM      1  O   HOH     1     -36.895 -19.159 -41.036  0.00  0.00    +0.000 OA
ENDROOT
TORSDOF 0
REMARK  Name = ../refined-set-2016/3umq/3umq_pocket.pdb
REMARK  100 active torsions:
REMARK  status: ('A' for Active; 'I' for Inactive)
REMARK    1  A    between atoms: _1  and  _3
REMARK    2  A    between atoms: _3  and  _4
REMARK    3  A    between atoms: _7  and  _9
REMARK    4  A    between atoms: _9  and  _10
REMARK    5  A    between atoms: _9  and  _12
REMARK    6  A    between atoms: _12  and  _13
REMARK    7  A    between atoms: _13  and  _80
REMARK    8  A    between atoms: _14  and  _16
REMARK    9  A    between atoms: _16  and  _17
REMARK   10  A    between atoms: _19  and  _21
REMARK   11  A    between atoms: _21  and  _22
REMARK   12  A    between atoms: _21  and  _24
REMARK   13  A    between atoms: _24  and  _25
REMARK   14  A    between atoms: _27  and  _29
REMARK   15  A    between atoms: _29  and  _30
REMARK   16  A    between atoms: _29  and  _32
REMARK   17  A    between atoms: _32  and  _33
REMARK   18  A    between atoms: _33  and  _34
REMARK   19  A    between atoms: _39  and  _41
REMARK   20  A    between atoms: _41  and  _42
REMARK   21  A    between atoms: _41  and  _44
REMARK   22  A    between atoms: _44  and  _45
REMARK   23  A    between atoms: _50  and  _52
REMARK   24  A    between atoms: _52  and  _53
REMARK   25  A    between atoms: _52  and  _55
REMARK   26  A    between atoms: _55  and  _56
REMARK   27  A    between atoms: _59  and  _61
REMARK   28  A    between atoms: _61  and  _62
REMARK   29  A    between atoms: _61  and  _64
REMARK   30  A    between atoms: _64  and  _65
REMARK   31  A    between atoms: _68  and  _70
REMARK   32  A    between atoms: _70  and  _71
REMARK   33  A    between atoms: _74  and  _76
REMARK   34  A    between atoms: _76  and  _77
REMARK   35  A    between atoms: _76  and  _79
REMARK   36  A    between atoms: _79  and  _80
REMARK   37  A    between atoms: _81  and  _83
REMARK   38  A    between atoms: _83  and  _84
REMARK   39  A    between atoms: _86  and  _88
REMARK   40  A    between atoms: _88  and  _89
REMARK   41  A    between atoms: _88  and  _91
REMARK   42  A    between atoms: _94  and  _96
REMARK   43  A    between atoms: _96  and  _97
REMARK   44  A    between atoms: _100  and  _102
REMARK   45  A    between atoms: _102  and  _103
REMARK   46  A    between atoms: _102  and  _105
REMARK   47  A    between atoms: _105  and  _106
REMARK   48  A    between atoms: _110  and  _111
REMARK   49  A    between atoms: _116  and  _118
REMARK   50  A    between atoms: _118  and  _119
REMARK   51  A    between atoms: _122  and  _124
REMARK   52  A    between atoms: _124  and  _125
REMARK   53  A    between atoms: _124  and  _127
REMARK   54  A    between atoms: _127  and  _128
REMARK   55  A    between atoms: _128  and  _165
REMARK   56  A    between atoms: _129  and  _131
REMARK   57  A    between atoms: _131  and  _132
REMARK   58  A    between atoms: _134  and  _136
REMARK   59  A    between atoms: _136  and  _137
REMARK   60  A    between atoms: _136  and  _139
REMARK   61  A    between atoms: _139  and  _140
REMARK   62  A    between atoms: _142  and  _144
REMARK   63  A    between atoms: _144  and  _145
REMARK   64  A    between atoms: _144  and  _147
REMARK   65  A    between atoms: _147  and  _148
REMARK   66  A    between atoms: _153  and  _155
REMARK   67  A    between atoms: _155  and  _156
REMARK   68  A    between atoms: _159  and  _161
REMARK   69  A    between atoms: _161  and  _162
REMARK   70  A    between atoms: _161  and  _164
REMARK   71  A    between atoms: _164  and  _165
REMARK   72  A    between atoms: _166  and  _168
REMARK   73  A    between atoms: _168  and  _169
REMARK   74  A    between atoms: _171  and  _173
REMARK   75  A    between atoms: _173  and  _174
REMARK   76  A    between atoms: _173  and  _176
REMARK   77  A    between atoms: _179  and  _181
REMARK   78  A    between atoms: _181  and  _182
REMARK   79  A    between atoms: _185  and  _187
REMARK   80  A    between atoms: _187  and  _188
REMARK   81  A    between atoms: _187  and  _190
REMARK   82  A    between atoms: _190  and  _191
REMARK   83  A    between atoms: _194  and  _196
REMARK   84  A    between atoms: _196  and  _197
REMARK   85  A    between atoms: _199  and  _201
REMARK   86  A    between atoms: _201  and  _202
REMARK   87  A    between atoms: _201  and  _204
REMARK   88  A    between atoms: _204  and  _205
REMARK   89  A    between atoms: _205  and  _206
REMARK   90  A    between atoms: _206  and  _207
REMARK   91  A    between atoms: _216  and  _218
REMARK   92  A    between atoms: _218  and  _219
REMARK   93  A    between atoms: _218  and  _221
REMARK   94  A    between atoms: _221  and  _222
REMARK   95  A    between atoms: _222  and  _223
REMARK   96  A    between atoms: _223  and  _224
REMARK   97  A    between atoms: _233  and  _235
REMARK   98  A    between atoms: _235  and  _236
REMARK   99  A    between atoms: _235  and  _238
REMARK  100  A    between atoms: _238  and  _239
REMARK                            x       y       z     vdW  Elec       q    Type
REMARK                         _______ _______ _______ _____ _____    ______ ____
ROOT
ATOM      1  O   HOH     1     -37.648 -28.436 -50.551  0.00  0.00    +0.000 OA
ENDROOT
TORSDOF 0
REMARK  Name = ../refined-set-2016/3umq/3umq_pocket.pdb
REMARK  100 active torsions:
REMARK  status: ('A' for Active; 'I' for Inactive)
REMARK    1  A    between atoms: _1  and  _3
REMARK    2  A    between atoms: _3  and  _4
REMARK    3  A    between atoms: _7  and  _9
REMARK    4  A    between atoms: _9  and  _10
REMARK    5  A    between atoms: _9  and  _12
REMARK    6  A    between atoms: _12  and  _13
REMARK    7  A    between atoms: _13  and  _80
REMARK    8  A    between atoms: _14  and  _16
REMARK    9  A    between atoms: _16  and  _17
REMARK   10  A    between atoms: _19  and  _21
REMARK   11  A    between atoms: _21  and  _22
REMARK   12  A    between atoms: _21  and  _24
REMARK   13  A    between atoms: _24  and  _25
REMARK   14  A    between atoms: _27  and  _29
REMARK   15  A    between atoms: _29  and  _30
REMARK   16  A    between atoms: _29  and  _32
REMARK   17  A    between atoms: _32  and  _33
REMARK   18  A    between atoms: _33  and  _34
REMARK   19  A    between atoms: _39  and  _41
REMARK   20  A    between atoms: _41  and  _42
REMARK   21  A    between atoms: _41  and  _44
REMARK   22  A    between atoms: _44  and  _45
REMARK   23  A    between atoms: _50  and  _52
REMARK   24  A    between atoms: _52  and  _53
REMARK   25  A    between atoms: _52  and  _55
REMARK   26  A    between atoms: _55  and  _56
REMARK   27  A    between atoms: _59  and  _61
REMARK   28  A    between atoms: _61  and  _62
REMARK   29  A    between atoms: _61  and  _64
REMARK   30  A    between atoms: _64  and  _65
REMARK   31  A    between atoms: _68  and  _70
REMARK   32  A    between atoms: _70  and  _71
REMARK   33  A    between atoms: _74  and  _76
REMARK   34  A    between atoms: _76  and  _77
REMARK   35  A    between atoms: _76  and  _79
REMARK   36  A    between atoms: _79  and  _80
REMARK   37  A    between atoms: _81  and  _83
REMARK   38  A    between atoms: _83  and  _84
REMARK   39  A    between atoms: _86  and  _88
REMARK   40  A    between atoms: _88  and  _89
REMARK   41  A    between atoms: _88  and  _91
REMARK   42  A    between atoms: _94  and  _96
REMARK   43  A    between atoms: _96  and  _97
REMARK   44  A    between atoms: _100  and  _102
REMARK   45  A    between atoms: _102  and  _103
REMARK   46  A    between atoms: _102  and  _105
REMARK   47  A    between atoms: _105  and  _106
REMARK   48  A    between atoms: _110  and  _111
REMARK   49  A    between atoms: _116  and  _118
REMARK   50  A    between atoms: _118  and  _119
REMARK   51  A    between atoms: _122  and  _124
REMARK   52  A    between atoms: _124  and  _125
REMARK   53  A    between atoms: _124  and  _127
REMARK   54  A    between atoms: _127  and  _128
REMARK   55  A    between atoms: _128  and  _165
REMARK   56  A    between atoms: _129  and  _131
REMARK   57  A    between atoms: _131  and  _132
REMARK   58  A    between atoms: _134  and  _136
REMARK   59  A    between atoms: _136  and  _137
REMARK   60  A    between atoms: _136  and  _139
REMARK   61  A    between atoms: _139  and  _140
REMARK   62  A    between atoms: _142  and  _144
REMARK   63  A    between atoms: _144  and  _145
REMARK   64  A    between atoms: _144  and  _147
REMARK   65  A    between atoms: _147  and  _148
REMARK   66  A    between atoms: _153  and  _155
REMARK   67  A    between atoms: _155  and  _156
REMARK   68  A    between atoms: _159  and  _161
REMARK   69  A    between atoms: _161  and  _162
REMARK   70  A    between atoms: _161  and  _164
REMARK   71  A    between atoms: _164  and  _165
REMARK   72  A    between atoms: _166  and  _168
REMARK   73  A    between atoms: _168  and  _169
REMARK   74  A    between atoms: _171  and  _173
REMARK   75  A    between atoms: _173  and  _174
REMARK   76  A    between atoms: _173  and  _176
REMARK   77  A    between atoms: _179  and  _181
REMARK   78  A    between atoms: _181  and  _182
REMARK   79  A    between atoms: _185  and  _187
REMARK   80  A    between atoms: _187  and  _188
REMARK   81  A    between atoms: _187  and  _190
REMARK   82  A    between atoms: _190  and  _191
REMARK   83  A    between atoms: _194  and  _196
REMARK   84  A    between atoms: _196  and  _197
REMARK   85  A    between atoms: _199  and  _201
REMARK   86  A    between atoms: _201  and  _202
REMARK   87  A    between atoms: _201  and  _204
REMARK   88  A    between atoms: _204  and  _205
REMARK   89  A    between atoms: _205  and  _206
REMARK   90  A    between atoms: _206  and  _207
REMARK   91  A    between atoms: _216  and  _218
REMARK   92  A    between atoms: _218  and  _219
REMARK   93  A    between atoms: _218  and  _221
REMARK   94  A    between atoms: _221  and  _222
REMARK   95  A    between atoms: _222  and  _223
REMARK   96  A    between atoms: _223  and  _224
REMARK   97  A    between atoms: _233  and  _235
REMARK   98  A    between atoms: _235  and  _236
REMARK   99  A    between atoms: _235  and  _238
REMARK  100  A    between atoms: _238  and  _239
REMARK                            x       y       z     vdW  Elec       q    Type
REMARK                         _______ _______ _______ _____ _____    ______ ____
ROOT
ATOM      1  O   HOH     1     -33.089 -25.176 -48.884  0.00  0.00    +0.000 OA
ENDROOT
TORSDOF 0
REMARK  Name = ../refined-set-2016/3umq/3umq_pocket.pdb
REMARK  100 active torsions:
REMARK  status: ('A' for Active; 'I' for Inactive)
REMARK    1  A    between atoms: _1  and  _3
REMARK    2  A    between atoms: _3  and  _4
REMARK    3  A    between atoms: _7  and  _9
REMARK    4  A    between atoms: _9  and  _10
REMARK    5  A    between atoms: _9  and  _12
REMARK    6  A    between atoms: _12  and  _13
REMARK    7  A    between atoms: _13  and  _80
REMARK    8  A    between atoms: _14  and  _16
REMARK    9  A    between atoms: _16  and  _17
REMARK   10  A    between atoms: _19  and  _21
REMARK   11  A    between atoms: _21  and  _22
REMARK   12  A    between atoms: _21  and  _24
REMARK   13  A    between atoms: _24  and  _25
REMARK   14  A    between atoms: _27  and  _29
REMARK   15  A    between atoms: _29  and  _30
REMARK   16  A    between atoms: _29  and  _32
REMARK   17  A    between atoms: _32  and  _33
REMARK   18  A    between atoms: _33  and  _34
REMARK   19  A    between atoms: _39  and  _41
REMARK   20  A    between atoms: _41  and  _42
REMARK   21  A    between atoms: _41  and  _44
REMARK   22  A    between atoms: _44  and  _45
REMARK   23  A    between atoms: _50  and  _52
REMARK   24  A    between atoms: _52  and  _53
REMARK   25  A    between atoms: _52  and  _55
REMARK   26  A    between atoms: _55  and  _56
REMARK   27  A    between atoms: _59  and  _61
REMARK   28  A    between atoms: _61  and  _62
REMARK   29  A    between atoms: _61  and  _64
REMARK   30  A    between atoms: _64  and  _65
REMARK   31  A    between atoms: _68  and  _70
REMARK   32  A    between atoms: _70  and  _71
REMARK   33  A    between atoms: _74  and  _76
REMARK   34  A    between atoms: _76  and  _77
REMARK   35  A    between atoms: _76  and  _79
REMARK   36  A    between atoms: _79  and  _80
REMARK   37  A    between atoms: _81  and  _83
REMARK   38  A    between atoms: _83  and  _84
REMARK   39  A    between atoms: _86  and  _88
REMARK   40  A    between atoms: _88  and  _89
REMARK   41  A    between atoms: _88  and  _91
REMARK   42  A    between atoms: _94  and  _96
REMARK   43  A    between atoms: _96  and  _97
REMARK   44  A    between atoms: _100  and  _102
REMARK   45  A    between atoms: _102  and  _103
REMARK   46  A    between atoms: _102  and  _105
REMARK   47  A    between atoms: _105  and  _106
REMARK   48  A    between atoms: _110  and  _111
REMARK   49  A    between atoms: _116  and  _118
REMARK   50  A    between atoms: _118  and  _119
REMARK   51  A    between atoms: _122  and  _124
REMARK   52  A    between atoms: _124  and  _125
REMARK   53  A    between atoms: _124  and  _127
REMARK   54  A    between atoms: _127  and  _128
REMARK   55  A    between atoms: _128  and  _165
REMARK   56  A    between atoms: _129  and  _131
REMARK   57  A    between atoms: _131  and  _132
REMARK   58  A    between atoms: _134  and  _136
REMARK   59  A    between atoms: _136  and  _137
REMARK   60  A    between atoms: _136  and  _139
REMARK   61  A    between atoms: _139  and  _140
REMARK   62  A    between atoms: _142  and  _144
REMARK   63  A    between atoms: _144  and  _145
REMARK   64  A    between atoms: _144  and  _147
REMARK   65  A    between atoms: _147  and  _148
REMARK   66  A    between atoms: _153  and  _155
REMARK   67  A    between atoms: _155  and  _156
REMARK   68  A    between atoms: _159  and  _161
REMARK   69  A    between atoms: _161  and  _162
REMARK   70  A    between atoms: _161  and  _164
REMARK   71  A    between atoms: _164  and  _165
REMARK   72  A    between atoms: _166  and  _168
REMARK   73  A    between atoms: _168  and  _169
REMARK   74  A    between atoms: _171  and  _173
REMARK   75  A    between atoms: _173  and  _174
REMARK   76  A    between atoms: _173  and  _176
REMARK   77  A    between atoms: _179  and  _181
REMARK   78  A    between atoms: _181  and  _182
REMARK   79  A    between atoms: _185  and  _187
REMARK   80  A    between atoms: _187  and  _188
REMARK   81  A    between atoms: _187  and  _190
REMARK   82  A    between atoms: _190  and  _191
REMARK   83  A    between atoms: _194  and  _196
REMARK   84  A    between atoms: _196  and  _197
REMARK   85  A    between atoms: _199  and  _201
REMARK   86  A    between atoms: _201  and  _202
REMARK   87  A    between atoms: _201  and  _204
REMARK   88  A    between atoms: _204  and  _205
REMARK   89  A    between atoms: _205  and  _206
REMARK   90  A    between atoms: _206  and  _207
REMARK   91  A    between atoms: _216  and  _218
REMARK   92  A    between atoms: _218  and  _219
REMARK   93  A    between atoms: _218  and  _221
REMARK   94  A    between atoms: _221  and  _222
REMARK   95  A    between atoms: _222  and  _223
REMARK   96  A    between atoms: _223  and  _224
REMARK   97  A    between atoms: _233  and  _235
REMARK   98  A    between atoms: _235  and  _236
REMARK   99  A    between atoms: _235  and  _238
REMARK  100  A    between atoms: _238  and  _239
REMARK                            x       y       z     vdW  Elec       q    Type
REMARK                         _______ _______ _______ _____ _____    ______ ____
ROOT
ATOM      1  O   HOH     1     -33.060 -17.512 -48.141  0.00  0.00    +0.000 OA
ENDROOT
TORSDOF 0
REMARK  Name = ../refined-set-2016/3umq/3umq_pocket.pdb
REMARK  100 active torsions:
REMARK  status: ('A' for Active; 'I' for Inactive)
REMARK    1  A    between atoms: _1  and  _3
REMARK    2  A    between atoms: _3  and  _4
REMARK    3  A    between atoms: _7  and  _9
REMARK    4  A    between atoms: _9  and  _10
REMARK    5  A    between atoms: _9  and  _12
REMARK    6  A    between atoms: _12  and  _13
REMARK    7  A    between atoms: _13  and  _80
REMARK    8  A    between atoms: _14  and  _16
REMARK    9  A    between atoms: _16  and  _17
REMARK   10  A    between atoms: _19  and  _21
REMARK   11  A    between atoms: _21  and  _22
REMARK   12  A    between atoms: _21  and  _24
REMARK   13  A    between atoms: _24  and  _25
REMARK   14  A    between atoms: _27  and  _29
REMARK   15  A    between atoms: _29  and  _30
REMARK   16  A    between atoms: _29  and  _32
REMARK   17  A    between atoms: _32  and  _33
REMARK   18  A    between atoms: _33  and  _34
REMARK   19  A    between atoms: _39  and  _41
REMARK   20  A    between atoms: _41  and  _42
REMARK   21  A    between atoms: _41  and  _44
REMARK   22  A    between atoms: _44  and  _45
REMARK   23  A    between atoms: _50  and  _52
REMARK   24  A    between atoms: _52  and  _53
REMARK   25  A    between atoms: _52  and  _55
REMARK   26  A    between atoms: _55  and  _56
REMARK   27  A    between atoms: _59  and  _61
REMARK   28  A    between atoms: _61  and  _62
REMARK   29  A    between atoms: _61  and  _64
REMARK   30  A    between atoms: _64  and  _65
REMARK   31  A    between atoms: _68  and  _70
REMARK   32  A    between atoms: _70  and  _71
REMARK   33  A    between atoms: _74  and  _76
REMARK   34  A    between atoms: _76  and  _77
REMARK   35  A    between atoms: _76  and  _79
REMARK   36  A    between atoms: _79  and  _80
REMARK   37  A    between atoms: _81  and  _83
REMARK   38  A    between atoms: _83  and  _84
REMARK   39  A    between atoms: _86  and  _88
REMARK   40  A    between atoms: _88  and  _89
REMARK   41  A    between atoms: _88  and  _91
REMARK   42  A    between atoms: _94  and  _96
REMARK   43  A    between atoms: _96  and  _97
REMARK   44  A    between atoms: _100  and  _102
REMARK   45  A    between atoms: _102  and  _103
REMARK   46  A    between atoms: _102  and  _105
REMARK   47  A    between atoms: _105  and  _106
REMARK   48  A    between atoms: _110  and  _111
REMARK   49  A    between atoms: _116  and  _118
REMARK   50  A    between atoms: _118  and  _119
REMARK   51  A    between atoms: _122  and  _124
REMARK   52  A    between atoms: _124  and  _125
REMARK   53  A    between atoms: _124  and  _127
REMARK   54  A    between atoms: _127  and  _128
REMARK   55  A    between atoms: _128  and  _165
REMARK   56  A    between atoms: _129  and  _131
REMARK   57  A    between atoms: _131  and  _132
REMARK   58  A    between atoms: _134  and  _136
REMARK   59  A    between atoms: _136  and  _137
REMARK   60  A    between atoms: _136  and  _139
REMARK   61  A    between atoms: _139  and  _140
REMARK   62  A    between atoms: _142  and  _144
REMARK   63  A    between atoms: _144  and  _145
REMARK   64  A    between atoms: _144  and  _147
REMARK   65  A    between atoms: _147  and  _148
REMARK   66  A    between atoms: _153  and  _155
REMARK   67  A    between atoms: _155  and  _156
REMARK   68  A    between atoms: _159  and  _161
REMARK   69  A    between atoms: _161  and  _162
REMARK   70  A    between atoms: _161  and  _164
REMARK   71  A    between atoms: _164  and  _165
REMARK   72  A    between atoms: _166  and  _168
REMARK   73  A    between atoms: _168  and  _169
REMARK   74  A    between atoms: _171  and  _173
REMARK   75  A    between atoms: _173  and  _174
REMARK   76  A    between atoms: _173  and  _176
REMARK   77  A    between atoms: _179  and  _181
REMARK   78  A    between atoms: _181  and  _182
REMARK   79  A    between atoms: _185  and  _187
REMARK   80  A    between atoms: _187  and  _188
REMARK   81  A    between atoms: _187  and  _190
REMARK   82  A    between atoms: _190  and  _191
REMARK   83  A    between atoms: _194  and  _196
REMARK   84  A    between atoms: _196  and  _197
REMARK   85  A    between atoms: _199  and  _201
REMARK   86  A    between atoms: _201  and  _202
REMARK   87  A    between atoms: _201  and  _204
REMARK   88  A    between atoms: _204  and  _205
REMARK   89  A    between atoms: _205  and  _206
REMARK   90  A    between atoms: _206  and  _207
REMARK   91  A    between atoms: _216  and  _218
REMARK   92  A    between atoms: _218  and  _219
REMARK   93  A    between atoms: _218  and  _221
REMARK   94  A    between atoms: _221  and  _222
REMARK   95  A    between atoms: _222  and  _223
REMARK   96  A    between atoms: _223  and  _224
REMARK   97  A    between atoms: _233  and  _235
REMARK   98  A    between atoms: _235  and  _236
REMARK   99  A    between atoms: _235  and  _238
REMARK  100  A    between atoms: _238  and  _239
REMARK                            x       y       z     vdW  Elec       q    Type
REMARK                         _______ _______ _______ _____ _____    ______ ____
ROOT
ATOM      1  O   HOH     1     -30.599 -16.730 -40.899  0.00  0.00    +0.000 OA
ENDROOT
TORSDOF 0
REMARK  Name = ../refined-set-2016/3umq/3umq_pocket.pdb
REMARK  100 active torsions:
REMARK  status: ('A' for Active; 'I' for Inactive)
REMARK    1  A    between atoms: _1  and  _3
REMARK    2  A    between atoms: _3  and  _4
REMARK    3  A    between atoms: _7  and  _9
REMARK    4  A    between atoms: _9  and  _10
REMARK    5  A    between atoms: _9  and  _12
REMARK    6  A    between atoms: _12  and  _13
REMARK    7  A    between atoms: _13  and  _80
REMARK    8  A    between atoms: _14  and  _16
REMARK    9  A    between atoms: _16  and  _17
REMARK   10  A    between atoms: _19  and  _21
REMARK   11  A    between atoms: _21  and  _22
REMARK   12  A    between atoms: _21  and  _24
REMARK   13  A    between atoms: _24  and  _25
REMARK   14  A    between atoms: _27  and  _29
REMARK   15  A    between atoms: _29  and  _30
REMARK   16  A    between atoms: _29  and  _32
REMARK   17  A    between atoms: _32  and  _33
REMARK   18  A    between atoms: _33  and  _34
REMARK   19  A    between atoms: _39  and  _41
REMARK   20  A    between atoms: _41  and  _42
REMARK   21  A    between atoms: _41  and  _44
REMARK   22  A    between atoms: _44  and  _45
REMARK   23  A    between atoms: _50  and  _52
REMARK   24  A    between atoms: _52  and  _53
REMARK   25  A    between atoms: _52  and  _55
REMARK   26  A    between atoms: _55  and  _56
REMARK   27  A    between atoms: _59  and  _61
REMARK   28  A    between atoms: _61  and  _62
REMARK   29  A    between atoms: _61  and  _64
REMARK   30  A    between atoms: _64  and  _65
REMARK   31  A    between atoms: _68  and  _70
REMARK   32  A    between atoms: _70  and  _71
REMARK   33  A    between atoms: _74  and  _76
REMARK   34  A    between atoms: _76  and  _77
REMARK   35  A    between atoms: _76  and  _79
REMARK   36  A    between atoms: _79  and  _80
REMARK   37  A    between atoms: _81  and  _83
REMARK   38  A    between atoms: _83  and  _84
REMARK   39  A    between atoms: _86  and  _88
REMARK   40  A    between atoms: _88  and  _89
REMARK   41  A    between atoms: _88  and  _91
REMARK   42  A    between atoms: _94  and  _96
REMARK   43  A    between atoms: _96  and  _97
REMARK   44  A    between atoms: _100  and  _102
REMARK   45  A    between atoms: _102  and  _103
REMARK   46  A    between atoms: _102  and  _105
REMARK   47  A    between atoms: _105  and  _106
REMARK   48  A    between atoms: _110  and  _111
REMARK   49  A    between atoms: _116  and  _118
REMARK   50  A    between atoms: _118  and  _119
REMARK   51  A    between atoms: _122  and  _124
REMARK   52  A    between atoms: _124  and  _125
REMARK   53  A    between atoms: _124  and  _127
REMARK   54  A    between atoms: _127  and  _128
REMARK   55  A    between atoms: _128  and  _165
REMARK   56  A    between atoms: _129  and  _131
REMARK   57  A    between atoms: _131  and  _132
REMARK   58  A    between atoms: _134  and  _136
REMARK   59  A    between atoms: _136  and  _137
REMARK   60  A    between atoms: _136  and  _139
REMARK   61  A    between atoms: _139  and  _140
REMARK   62  A    between atoms: _142  and  _144
REMARK   63  A    between atoms: _144  and  _145
REMARK   64  A    between atoms: _144  and  _147
REMARK   65  A    between atoms: _147  and  _148
REMARK   66  A    between atoms: _153  and  _155
REMARK   67  A    between atoms: _155  and  _156
REMARK   68  A    between atoms: _159  and  _161
REMARK   69  A    between atoms: _161  and  _162
REMARK   70  A    between atoms: _161  and  _164
REMARK   71  A    between atoms: _164  and  _165
REMARK   72  A    between atoms: _166  and  _168
REMARK   73  A    between atoms: _168  and  _169
REMARK   74  A    between atoms: _171  and  _173
REMARK   75  A    between atoms: _173  and  _174
REMARK   76  A    between atoms: _173  and  _176
REMARK   77  A    between atoms: _179  and  _181
REMARK   78  A    between atoms: _181  and  _182
REMARK   79  A    between atoms: _185  and  _187
REMARK   80  A    between atoms: _187  and  _188
REMARK   81  A    between atoms: _187  and  _190
REMARK   82  A    between atoms: _190  and  _191
REMARK   83  A    between atoms: _194  and  _196
REMARK   84  A    between atoms: _196  and  _197
REMARK   85  A    between atoms: _199  and  _201
REMARK   86  A    between atoms: _201  and  _202
REMARK   87  A    between atoms: _201  and  _204
REMARK   88  A    between atoms: _204  and  _205
REMARK   89  A    between atoms: _205  and  _206
REMARK   90  A    between atoms: _206  and  _207
REMARK   91  A    between atoms: _216  and  _218
REMARK   92  A    between atoms: _218  and  _219
REMARK   93  A    between atoms: _218  and  _221
REMARK   94  A    between atoms: _221  and  _222
REMARK   95  A    between atoms: _222  and  _223
REMARK   96  A    between atoms: _223  and  _224
REMARK   97  A    between atoms: _233  and  _235
REMARK   98  A    between atoms: _235  and  _236
REMARK   99  A    between atoms: _235  and  _238
REMARK  100  A    between atoms: _238  and  _239
REMARK                            x       y       z     vdW  Elec       q    Type
REMARK                         _______ _______ _______ _____ _____    ______ ____
ROOT
ATOM      1  O   HOH     1     -33.869 -18.126 -40.398  0.00  0.00    +0.000 OA
ENDROOT
TORSDOF 0
REMARK  Name = ../refined-set-2016/3umq/3umq_pocket.pdb
REMARK  100 active torsions:
REMARK  status: ('A' for Active; 'I' for Inactive)
REMARK    1  A    between atoms: _1  and  _3
REMARK    2  A    between atoms: _3  and  _4
REMARK    3  A    between atoms: _7  and  _9
REMARK    4  A    between atoms: _9  and  _10
REMARK    5  A    between atoms: _9  and  _12
REMARK    6  A    between atoms: _12  and  _13
REMARK    7  A    between atoms: _13  and  _80
REMARK    8  A    between atoms: _14  and  _16
REMARK    9  A    between atoms: _16  and  _17
REMARK   10  A    between atoms: _19  and  _21
REMARK   11  A    between atoms: _21  and  _22
REMARK   12  A    between atoms: _21  and  _24
REMARK   13  A    between atoms: _24  and  _25
REMARK   14  A    between atoms: _27  and  _29
REMARK   15  A    between atoms: _29  and  _30
REMARK   16  A    between atoms: _29  and  _32
REMARK   17  A    between atoms: _32  and  _33
REMARK   18  A    between atoms: _33  and  _34
REMARK   19  A    between atoms: _39  and  _41
REMARK   20  A    between atoms: _41  and  _42
REMARK   21  A    between atoms: _41  and  _44
REMARK   22  A    between atoms: _44  and  _45
REMARK   23  A    between atoms: _50  and  _52
REMARK   24  A    between atoms: _52  and  _53
REMARK   25  A    between atoms: _52  and  _55
REMARK   26  A    between atoms: _55  and  _56
REMARK   27  A    between atoms: _59  and  _61
REMARK   28  A    between atoms: _61  and  _62
REMARK   29  A    between atoms: _61  and  _64
REMARK   30  A    between atoms: _64  and  _65
REMARK   31  A    between atoms: _68  and  _70
REMARK   32  A    between atoms: _70  and  _71
REMARK   33  A    between atoms: _74  and  _76
REMARK   34  A    between atoms: _76  and  _77
REMARK   35  A    between atoms: _76  and  _79
REMARK   36  A    between atoms: _79  and  _80
REMARK   37  A    between atoms: _81  and  _83
REMARK   38  A    between atoms: _83  and  _84
REMARK   39  A    between atoms: _86  and  _88
REMARK   40  A    between atoms: _88  and  _89
REMARK   41  A    between atoms: _88  and  _91
REMARK   42  A    between atoms: _94  and  _96
REMARK   43  A    between atoms: _96  and  _97
REMARK   44  A    between atoms: _100  and  _102
REMARK   45  A    between atoms: _102  and  _103
REMARK   46  A    between atoms: _102  and  _105
REMARK   47  A    between atoms: _105  and  _106
REMARK   48  A    between atoms: _110  and  _111
REMARK   49  A    between atoms: _116  and  _118
REMARK   50  A    between atoms: _118  and  _119
REMARK   51  A    between atoms: _122  and  _124
REMARK   52  A    between atoms: _124  and  _125
REMARK   53  A    between atoms: _124  and  _127
REMARK   54  A    between atoms: _127  and  _128
REMARK   55  A    between atoms: _128  and  _165
REMARK   56  A    between atoms: _129  and  _131
REMARK   57  A    between atoms: _131  and  _132
REMARK   58  A    between atoms: _134  and  _136
REMARK   59  A    between atoms: _136  and  _137
REMARK   60  A    between atoms: _136  and  _139
REMARK   61  A    between atoms: _139  and  _140
REMARK   62  A    between atoms: _142  and  _144
REMARK   63  A    between atoms: _144  and  _145
REMARK   64  A    between atoms: _144  and  _147
REMARK   65  A    between atoms: _147  and  _148
REMARK   66  A    between atoms: _153  and  _155
REMARK   67  A    between atoms: _155  and  _156
REMARK   68  A    between atoms: _159  and  _161
REMARK   69  A    between atoms: _161  and  _162
REMARK   70  A    between atoms: _161  and  _164
REMARK   71  A    between atoms: _164  and  _165
REMARK   72  A    between atoms: _166  and  _168
REMARK   73  A    between atoms: _168  and  _169
REMARK   74  A    between atoms: _171  and  _173
REMARK   75  A    between atoms: _173  and  _174
REMARK   76  A    between atoms: _173  and  _176
REMARK   77  A    between atoms: _179  and  _181
REMARK   78  A    between atoms: _181  and  _182
REMARK   79  A    between atoms: _185  and  _187
REMARK   80  A    between atoms: _187  and  _188
REMARK   81  A    between atoms: _187  and  _190
REMARK   82  A    between atoms: _190  and  _191
REMARK   83  A    between atoms: _194  and  _196
REMARK   84  A    between atoms: _196  and  _197
REMARK   85  A    between atoms: _199  and  _201
REMARK   86  A    between atoms: _201  and  _202
REMARK   87  A    between atoms: _201  and  _204
REMARK   88  A    between atoms: _204  and  _205
REMARK   89  A    between atoms: _205  and  _206
REMARK   90  A    between atoms: _206  and  _207
REMARK   91  A    between atoms: _216  and  _218
REMARK   92  A    between atoms: _218  and  _219
REMARK   93  A    between atoms: _218  and  _221
REMARK   94  A    between atoms: _221  and  _222
REMARK   95  A    between atoms: _222  and  _223
REMARK   96  A    between atoms: _223  and  _224
REMARK   97  A    between atoms: _233  and  _235
REMARK   98  A    between atoms: _235  and  _236
REMARK   99  A    between atoms: _235  and  _238
REMARK  100  A    between atoms: _238  and  _239
REMARK                            x       y       z     vdW  Elec       q    Type
REMARK                         _______ _______ _______ _____ _____    ______ ____
ROOT
ATOM      1  O   HOH     1     -43.643 -24.845 -38.017  0.00  0.00    +0.000 OA
ENDROOT
TORSDOF 0
