REMARK  Name = ../refined-set-2016/4dst/4dst_pocket.pdb
REMARK  127 active torsions:
REMARK  status: ('A' for Active; 'I' for Inactive)
REMARK    1  A    between atoms: _1  and  _3
REMARK    2  A    between atoms: _3  and  _4
REMARK    3  A    between atoms: _3  and  _6
REMARK    4  A    between atoms: _6  and  _7
REMARK    5  A    between atoms: _7  and  _8
REMARK    6  A    between atoms: _11  and  _13
REMARK    7  A    between atoms: _13  and  _14
REMARK    8  A    between atoms: _13  and  _16
REMARK    9  A    between atoms: _16  and  _17
REMARK   10  A    between atoms: _22  and  _23
REMARK   11  A    between atoms: _25  and  _27
REMARK   12  A    between atoms: _27  and  _28
REMARK   13  A    between atoms: _27  and  _30
REMARK   14  A    between atoms: _30  and  _31
REMARK   15  A    between atoms: _31  and  _32
REMARK   16  A    between atoms: _32  and  _33
REMARK   17  A    between atoms: _33  and  _34
REMARK   18  A    between atoms: _38  and  _40
REMARK   19  A    between atoms: _40  and  _41
REMARK   20  A    between atoms: _40  and  _43
REMARK   21  A    between atoms: _43  and  _44
REMARK   22  A    between atoms: _47  and  _49
REMARK   23  A    between atoms: _49  and  _50
REMARK   24  A    between atoms: _49  and  _52
REMARK   25  A    between atoms: _55  and  _57
REMARK   26  A    between atoms: _57  and  _58
REMARK   27  A    between atoms: _57  and  _60
REMARK   28  A    between atoms: _63  and  _65
REMARK   29  A    between atoms: _65  and  _66
REMARK   30  A    between atoms: _65  and  _68
REMARK   31  A    between atoms: _68  and  _69
REMARK   32  A    between atoms: _69  and  _70
REMARK   33  A    between atoms: _73  and  _75
REMARK   34  A    between atoms: _75  and  _76
REMARK   35  A    between atoms: _75  and  _78
REMARK   36  A    between atoms: _78  and  _79
REMARK   37  A    between atoms: _82  and  _84
REMARK   38  A    between atoms: _84  and  _85
REMARK   39  A    between atoms: _84  and  _87
REMARK   40  A    between atoms: _87  and  _88
REMARK   41  A    between atoms: _90  and  _92
REMARK   42  A    between atoms: _92  and  _93
REMARK   43  A    between atoms: _92  and  _95
REMARK   44  A    between atoms: _95  and  _96
REMARK   45  A    between atoms: _101  and  _102
REMARK   46  A    between atoms: _104  and  _106
REMARK   47  A    between atoms: _106  and  _107
REMARK   48  A    between atoms: _106  and  _109
REMARK   49  A    between atoms: _109  and  _110
REMARK   50  A    between atoms: _110  and  _111
REMARK   51  A    between atoms: _111  and  _112
REMARK   52  A    between atoms: _121  and  _123
REMARK   53  A    between atoms: _123  and  _124
REMARK   54  A    between atoms: _123  and  _126
REMARK   55  A    between atoms: _126  and  _127
REMARK   56  A    between atoms: _127  and  _128
REMARK   57  A    between atoms: _128  and  _129
REMARK   58  A    between atoms: _129  and  _130
REMARK   59  A    between atoms: _134  and  _136
REMARK   60  A    between atoms: _136  and  _137
REMARK   61  A    between atoms: _136  and  _139
REMARK   62  A    between atoms: _139  and  _140
REMARK   63  A    between atoms: _143  and  _145
REMARK   64  A    between atoms: _145  and  _146
REMARK   65  A    between atoms: _145  and  _148
REMARK   66  A    between atoms: _148  and  _149
REMARK   67  A    between atoms: _152  and  _154
REMARK   68  A    between atoms: _154  and  _155
REMARK   69  A    between atoms: _154  and  _157
REMARK   70  A    between atoms: _157  and  _158
REMARK   71  A    between atoms: _161  and  _163
REMARK   72  A    between atoms: _163  and  _164
REMARK   73  A    between atoms: _163  and  _166
REMARK   74  A    between atoms: _166  and  _167
REMARK   75  A    between atoms: _170  and  _172
REMARK   76  A    between atoms: _172  and  _173
REMARK   77  A    between atoms: _172  and  _175
REMARK   78  A    between atoms: _175  and  _176
REMARK   79  A    between atoms: _179  and  _181
REMARK   80  A    between atoms: _181  and  _182
REMARK   81  A    between atoms: _181  and  _184
REMARK   82  A    between atoms: _184  and  _185
REMARK   83  A    between atoms: _188  and  _190
REMARK   84  A    between atoms: _190  and  _191
REMARK   85  A    between atoms: _190  and  _193
REMARK   86  A    between atoms: _193  and  _194
REMARK   87  A    between atoms: _194  and  _195
REMARK   88  A    between atoms: _200  and  _202
REMARK   89  A    between atoms: _202  and  _203
REMARK   90  A    between atoms: _202  and  _205
REMARK   91  A    between atoms: _205  and  _206
REMARK   92  A    between atoms: _211  and  _212
REMARK   93  A    between atoms: _214  and  _216
REMARK   94  A    between atoms: _216  and  _217
REMARK   95  A    between atoms: _216  and  _219
REMARK   96  A    between atoms: _219  and  _220
REMARK   97  A    between atoms: _220  and  _221
REMARK   98  A    between atoms: _223  and  _225
REMARK   99  A    between atoms: _225  and  _226
REMARK  100  A    between atoms: _225  and  _228
REMARK  101  A    between atoms: _228  and  _229
REMARK  102  A    between atoms: _229  and  _230
REMARK  103  A    between atoms: _230  and  _231
REMARK  104  A    between atoms: _240  and  _242
REMARK  105  A    between atoms: _242  and  _243
REMARK  106  A    between atoms: _242  and  _245
REMARK  107  A    between atoms: _245  and  _246
REMARK  108  A    between atoms: _249  and  _251
REMARK  109  A    between atoms: _251  and  _252
REMARK  110  A    between atoms: _254  and  _256
REMARK  111  A    between atoms: _256  and  _257
REMARK  112  A    between atoms: _256  and  _259
REMARK  113  A    between atoms: _259  and  _260
REMARK  114  A    between atoms: _260  and  _261
REMARK  115  A    between atoms: _264  and  _266
REMARK  116  A    between atoms: _266  and  _267
REMARK  117  A    between atoms: _269  and  _271
REMARK  118  A    between atoms: _271  and  _272
REMARK  119  A    between atoms: _271  and  _274
REMARK  120  A    between atoms: _274  and  _275
REMARK  121  A    between atoms: _281  and  _283
REMARK  122  A    between atoms: _283  and  _284
REMARK  123  A    between atoms: _283  and  _286
REMARK  124  A    between atoms: _286  and  _287
REMARK  125  A    between atoms: _287  and  _288
REMARK  126  A    between atoms: _288  and  _289
REMARK  127  A    between atoms: _289  and  _290
REMARK                            x       y       z     vdW  Elec       q    Type
REMARK                         _______ _______ _______ _____ _____    ______ ____
ROOT
ATOM      1  CA  LYS A   3      26.147  16.598   4.949  0.00  0.00    +0.149 C 
ENDROOT
BRANCH   1   4
ATOM      2  C   TYR A   2      28.191  16.737   3.630  0.00  0.00    +0.241 C 
ATOM      3  O   TYR A   2      28.604  15.656   4.050  0.00  0.00    -0.273 OA
ATOM      4  N   LYS A   3      27.040  17.275   4.015  0.00  0.00    -0.297 N 
ATOM      5  H   LYS A   3      26.767  18.206   3.640  0.00  0.00    +0.150 HD
BRANCH   2   6
ATOM      6  CA  TYR A   2      28.989  17.527   2.608  0.00  0.00    +0.153 C 
BRANCH   6   9
ATOM      7  C   GLU A   1      31.001  18.772   3.209  0.00  0.00    +0.238 C 
ATOM      8  O   GLU A   1      30.443  19.860   3.038  0.00  0.00    -0.274 OA
ATOM      9  N   TYR A   2      30.395  17.607   2.995  0.00  0.00    -0.297 N 
ATOM     10  H   TYR A   2      30.939  16.727   3.107  0.00  0.00    +0.150 HD
BRANCH   7  11
ATOM     11  CA  GLU A   1      32.459  18.699   3.682  0.00  0.00    +0.145 C 
BRANCH  11  12
ATOM     12  N   GLU A   1      33.311  19.589   2.915  0.00  0.00    -0.238 NA
ATOM     13  H   GLU A   1      33.308  20.604   3.141  0.00  0.00    +0.142 HD
ENDBRANCH  11  12
BRANCH  11  14
ATOM     14  CB  GLU A   1      32.561  19.059   5.162  0.00  0.00    +0.038 C 
BRANCH  14  15
ATOM     15  CG  GLU A   1      31.520  18.398   6.036  0.00  0.00    +0.116 C 
BRANCH  15  16
ATOM     16  CD  GLU A   1      31.422  19.047   7.400  0.00  0.00    +0.365 C 
ATOM     17  OE2 GLU A   1      30.362  18.908   8.050  0.00  0.00    -0.246 OA
ATOM     18  OE1 GLU A   1      32.404  19.704   7.815  0.00  0.00    -0.246 OA
ENDBRANCH  15  16
ENDBRANCH  14  15
ENDBRANCH  11  14
ENDBRANCH   7  11
ENDBRANCH   6   9
BRANCH   6  19
ATOM     19  CB  TYR A   2      28.839  16.860   1.241  0.00  0.00    +0.055 C 
BRANCH  19  20
ATOM     20  CG  TYR A   2      29.495  17.619   0.124  0.00  0.00    -0.020 A 
ATOM     21  CD2 TYR A   2      30.837  17.424  -0.178  0.00  0.00    -0.001 A 
ATOM     22  CE2 TYR A   2      31.445  18.120  -1.202  0.00  0.00    +0.036 A 
ATOM     23  CZ  TYR A   2      30.714  19.032  -1.938  0.00  0.00    +0.134 A 
ATOM     24  CE1 TYR A   2      29.381  19.246  -1.655  0.00  0.00    +0.036 A 
ATOM     25  CD1 TYR A   2      28.779  18.537  -0.627  0.00  0.00    -0.001 A 
BRANCH  23  26
ATOM     26  OH  TYR A   2      31.320  19.729  -2.957  0.00  0.00    -0.506 OA
ATOM     27  HH  TYR A   2      31.663  19.092  -3.633  0.00  0.00    +0.292 HD
ENDBRANCH  23  26
ENDBRANCH  19  20
ENDBRANCH   6  19
ENDBRANCH   2   6
ENDBRANCH   1   4
BRANCH   1  28
ATOM     28  C   LYS A   3      25.021  15.889   4.195  0.00  0.00    +0.241 C 
ATOM     29  N   LEU A   4      25.103  14.565   4.102  0.00  0.00    -0.297 N 
ATOM     30  H   LEU A   4      25.912  14.071   4.530  0.00  0.00    +0.150 HD
ATOM     31  O   LYS A   3      24.096  16.530   3.701  0.00  0.00    -0.273 OA
BRANCH  29  32
ATOM     32  CA  LEU A   4      24.076  13.795   3.409  0.00  0.00    +0.149 C 
BRANCH  32  33
ATOM     33  C   LEU A   4      23.176  13.093   4.416  0.00  0.00    +0.241 C 
ATOM     34  O   LEU A   4      23.654  12.517   5.396  0.00  0.00    -0.273 OA
ATOM     35  N   VAL A   5      21.870  13.156   4.176  0.00  0.00    -0.297 N 
ATOM     36  H   VAL A   5      21.535  13.708   3.361  0.00  0.00    +0.150 HD
BRANCH  35  37
ATOM     37  CA  VAL A   5      20.892  12.476   5.018  0.00  0.00    +0.149 C 
BRANCH  37  38
ATOM     38  C   VAL A   5      20.111  11.442   4.200  0.00  0.00    +0.241 C 
ATOM     39  N   VAL A   6      20.136  10.188   4.643  0.00  0.00    -0.298 N 
ATOM     40  H   VAL A   6      20.688   9.962   5.495  0.00  0.00    +0.150 HD
ATOM     41  O   VAL A   5      19.497  11.775   3.188  0.00  0.00    -0.273 OA
BRANCH  39  42
ATOM     42  CA  VAL A   6      19.406   9.121   3.962  0.00  0.00    +0.137 C 
BRANCH  42  43
ATOM     43  CB  VAL A   6      20.221   7.810   3.960  0.00  0.00    +0.026 C 
ATOM     44  CG2 VAL A   6      21.618   8.049   3.328  0.00  0.00    +0.002 C 
ATOM     45  CG1 VAL A   6      19.470   6.708   3.239  0.00  0.00    +0.002 C 
ENDBRANCH  42  43
BRANCH  42  46
ATOM     46  C   VAL A   6      18.045   8.911   4.626  0.00  0.00    +0.227 C 
ATOM     47  O   VAL A   6      17.979   8.563   5.811  0.00  0.00    -0.286 OA
ENDBRANCH  42  46
ENDBRANCH  39  42
ENDBRANCH  37  38
BRANCH  37  48
ATOM     48  CB  VAL A   5      19.899  13.478   5.646  0.00  0.00    +0.027 C 
ATOM     49  CG2 VAL A   5      18.858  12.739   6.493  0.00  0.00    +0.002 C 
ATOM     50  CG1 VAL A   5      20.641  14.534   6.490  0.00  0.00    +0.002 C 
ENDBRANCH  37  48
ENDBRANCH  35  37
ENDBRANCH  32  33
BRANCH  32  51
ATOM     51  CB  LEU A   4      24.707  12.767   2.460  0.00  0.00    +0.029 C 
BRANCH  51  52
ATOM     52  CG  LEU A   4      25.958  13.175   1.676  0.00  0.00    +0.002 C 
ATOM     53  CD2 LEU A   4      25.830  14.565   1.090  0.00  0.00    +0.000 C 
ATOM     54  CD1 LEU A   4      26.251  12.171   0.574  0.00  0.00    +0.000 C 
ENDBRANCH  51  52
ENDBRANCH  32  51
ENDBRANCH  29  32
ENDBRANCH   1  28
BRANCH   1  55
ATOM     55  CB  LYS A   3      25.555  17.600   5.940  0.00  0.00    +0.029 C 
BRANCH  55  56
ATOM     56  CG  LYS A   3      26.579  18.406   6.718  0.00  0.00    +0.000 C 
BRANCH  56  57
ATOM     57  CD  LYS A   3      25.889  19.427   7.614  0.00  0.00    -0.024 C 
BRANCH  57  58
ATOM     58  CE  LYS A   3      26.893  20.266   8.393  0.00  0.00    -0.086 C 
BRANCH  58  59
ATOM     59  NZ  LYS A   3      27.742  19.434   9.293  0.00  0.00    +0.380 N 
ATOM     60  HZ1 LYS A   3      27.136  18.936   9.976  0.00  0.00    -0.089 HD
ATOM     61  HZ2 LYS A   3      28.410  20.047   9.802  0.00  0.00    -0.089 HD
ATOM     62  HZ3 LYS A   3      28.270  18.740   8.726  0.00  0.00    -0.089 HD
ENDBRANCH  58  59
ENDBRANCH  57  58
ENDBRANCH  56  57
ENDBRANCH  55  56
ENDBRANCH   1  55
TORSDOF 27
REMARK  Name = ../refined-set-2016/4dst/4dst_pocket.pdb
REMARK  127 active torsions:
REMARK  status: ('A' for Active; 'I' for Inactive)
REMARK    1  A    between atoms: _1  and  _3
REMARK    2  A    between atoms: _3  and  _4
REMARK    3  A    between atoms: _3  and  _6
REMARK    4  A    between atoms: _6  and  _7
REMARK    5  A    between atoms: _7  and  _8
REMARK    6  A    between atoms: _11  and  _13
REMARK    7  A    between atoms: _13  and  _14
REMARK    8  A    between atoms: _13  and  _16
REMARK    9  A    between atoms: _16  and  _17
REMARK   10  A    between atoms: _22  and  _23
REMARK   11  A    between atoms: _25  and  _27
REMARK   12  A    between atoms: _27  and  _28
REMARK   13  A    between atoms: _27  and  _30
REMARK   14  A    between atoms: _30  and  _31
REMARK   15  A    between atoms: _31  and  _32
REMARK   16  A    between atoms: _32  and  _33
REMARK   17  A    between atoms: _33  and  _34
REMARK   18  A    between atoms: _38  and  _40
REMARK   19  A    between atoms: _40  and  _41
REMARK   20  A    between atoms: _40  and  _43
REMARK   21  A    between atoms: _43  and  _44
REMARK   22  A    between atoms: _47  and  _49
REMARK   23  A    between atoms: _49  and  _50
REMARK   24  A    between atoms: _49  and  _52
REMARK   25  A    between atoms: _55  and  _57
REMARK   26  A    between atoms: _57  and  _58
REMARK   27  A    between atoms: _57  and  _60
REMARK   28  A    between atoms: _63  and  _65
REMARK   29  A    between atoms: _65  and  _66
REMARK   30  A    between atoms: _65  and  _68
REMARK   31  A    between atoms: _68  and  _69
REMARK   32  A    between atoms: _69  and  _70
REMARK   33  A    between atoms: _73  and  _75
REMARK   34  A    between atoms: _75  and  _76
REMARK   35  A    between atoms: _75  and  _78
REMARK   36  A    between atoms: _78  and  _79
REMARK   37  A    between atoms: _82  and  _84
REMARK   38  A    between atoms: _84  and  _85
REMARK   39  A    between atoms: _84  and  _87
REMARK   40  A    between atoms: _87  and  _88
REMARK   41  A    between atoms: _90  and  _92
REMARK   42  A    between atoms: _92  and  _93
REMARK   43  A    between atoms: _92  and  _95
REMARK   44  A    between atoms: _95  and  _96
REMARK   45  A    between atoms: _101  and  _102
REMARK   46  A    between atoms: _104  and  _106
REMARK   47  A    between atoms: _106  and  _107
REMARK   48  A    between atoms: _106  and  _109
REMARK   49  A    between atoms: _109  and  _110
REMARK   50  A    between atoms: _110  and  _111
REMARK   51  A    between atoms: _111  and  _112
REMARK   52  A    between atoms: _121  and  _123
REMARK   53  A    between atoms: _123  and  _124
REMARK   54  A    between atoms: _123  and  _126
REMARK   55  A    between atoms: _126  and  _127
REMARK   56  A    between atoms: _127  and  _128
REMARK   57  A    between atoms: _128  and  _129
REMARK   58  A    between atoms: _129  and  _130
REMARK   59  A    between atoms: _134  and  _136
REMARK   60  A    between atoms: _136  and  _137
REMARK   61  A    between atoms: _136  and  _139
REMARK   62  A    between atoms: _139  and  _140
REMARK   63  A    between atoms: _143  and  _145
REMARK   64  A    between atoms: _145  and  _146
REMARK   65  A    between atoms: _145  and  _148
REMARK   66  A    between atoms: _148  and  _149
REMARK   67  A    between atoms: _152  and  _154
REMARK   68  A    between atoms: _154  and  _155
REMARK   69  A    between atoms: _154  and  _157
REMARK   70  A    between atoms: _157  and  _158
REMARK   71  A    between atoms: _161  and  _163
REMARK   72  A    between atoms: _163  and  _164
REMARK   73  A    between atoms: _163  and  _166
REMARK   74  A    between atoms: _166  and  _167
REMARK   75  A    between atoms: _170  and  _172
REMARK   76  A    between atoms: _172  and  _173
REMARK   77  A    between atoms: _172  and  _175
REMARK   78  A    between atoms: _175  and  _176
REMARK   79  A    between atoms: _179  and  _181
REMARK   80  A    between atoms: _181  and  _182
REMARK   81  A    between atoms: _181  and  _184
REMARK   82  A    between atoms: _184  and  _185
REMARK   83  A    between atoms: _188  and  _190
REMARK   84  A    between atoms: _190  and  _191
REMARK   85  A    between atoms: _190  and  _193
REMARK   86  A    between atoms: _193  and  _194
REMARK   87  A    between atoms: _194  and  _195
REMARK   88  A    between atoms: _200  and  _202
REMARK   89  A    between atoms: _202  and  _203
REMARK   90  A    between atoms: _202  and  _205
REMARK   91  A    between atoms: _205  and  _206
REMARK   92  A    between atoms: _211  and  _212
REMARK   93  A    between atoms: _214  and  _216
REMARK   94  A    between atoms: _216  and  _217
REMARK   95  A    between atoms: _216  and  _219
REMARK   96  A    between atoms: _219  and  _220
REMARK   97  A    between atoms: _220  and  _221
REMARK   98  A    between atoms: _223  and  _225
REMARK   99  A    between atoms: _225  and  _226
REMARK  100  A    between atoms: _225  and  _228
REMARK  101  A    between atoms: _228  and  _229
REMARK  102  A    between atoms: _229  and  _230
REMARK  103  A    between atoms: _230  and  _231
REMARK  104  A    between atoms: _240  and  _242
REMARK  105  A    between atoms: _242  and  _243
REMARK  106  A    between atoms: _242  and  _245
REMARK  107  A    between atoms: _245  and  _246
REMARK  108  A    between atoms: _249  and  _251
REMARK  109  A    between atoms: _251  and  _252
REMARK  110  A    between atoms: _254  and  _256
REMARK  111  A    between atoms: _256  and  _257
REMARK  112  A    between atoms: _256  and  _259
REMARK  113  A    between atoms: _259  and  _260
REMARK  114  A    between atoms: _260  and  _261
REMARK  115  A    between atoms: _264  and  _266
REMARK  116  A    between atoms: _266  and  _267
REMARK  117  A    between atoms: _269  and  _271
REMARK  118  A    between atoms: _271  and  _272
REMARK  119  A    between atoms: _271  and  _274
REMARK  120  A    between atoms: _274  and  _275
REMARK  121  A    between atoms: _281  and  _283
REMARK  122  A    between atoms: _283  and  _284
REMARK  123  A    between atoms: _283  and  _286
REMARK  124  A    between atoms: _286  and  _287
REMARK  125  A    between atoms: _287  and  _288
REMARK  126  A    between atoms: _288  and  _289
REMARK  127  A    between atoms: _289  and  _290
REMARK                            x       y       z     vdW  Elec       q    Type
REMARK                         _______ _______ _______ _____ _____    ______ ____
ROOT
ATOM      1  CA  TYR A   4      29.044   7.688   9.021  0.00  0.00    +0.153 C 
ENDROOT
BRANCH   1   2
ATOM      2  C   TYR A   4      29.882   8.773   8.392  0.00  0.00    +0.241 C 
ATOM      3  O   TYR A   4      29.407   9.884   8.143  0.00  0.00    -0.273 OA
ATOM      4  N   ARG A   5      31.134   8.423   8.124  0.00  0.00    -0.297 N 
ATOM      5  H   ARG A   5      31.446   7.462   8.370  0.00  0.00    +0.150 HD
BRANCH   4   6
ATOM      6  CA  ARG A   5      32.085   9.323   7.504  0.00  0.00    +0.149 C 
BRANCH   6   7
ATOM      7  C   ARG A   5      32.772   8.597   6.359  0.00  0.00    +0.241 C 
ATOM      8  O   ARG A   5      33.351   7.528   6.553  0.00  0.00    -0.273 OA
ATOM      9  N   LYS A   6      32.702   9.165   5.162  0.00  0.00    -0.298 N 
ATOM     10  H   LYS A   6      32.096   9.998   5.018  0.00  0.00    +0.150 HD
BRANCH   9  11
ATOM     11  CA  LYS A   6      33.470   8.626   4.050  0.00  0.00    +0.137 C 
BRANCH  11  12
ATOM     12  C   LYS A   6      34.194   9.726   3.286  0.00  0.00    +0.227 C 
ATOM     13  O   LYS A   6      33.613  10.759   2.948  0.00  0.00    -0.286 OA
ENDBRANCH  11  12
BRANCH  11  14
ATOM     14  CB  LYS A   6      32.593   7.817   3.095  0.00  0.00    +0.028 C 
BRANCH  14  15
ATOM     15  CG  LYS A   6      33.402   7.124   2.008  0.00  0.00    -0.000 C 
BRANCH  15  16
ATOM     16  CD  LYS A   6      32.542   6.260   1.114  0.00  0.00    -0.024 C 
BRANCH  16  17
ATOM     17  CE  LYS A   6      33.402   5.433   0.169  0.00  0.00    -0.086 C 
BRANCH  17  18
ATOM     18  NZ  LYS A   6      34.380   4.593   0.919  0.00  0.00    +0.380 N 
ATOM     19  HZ1 LYS A   6      33.867   3.946   1.551  0.00  0.00    -0.089 HD
ATOM     20  HZ2 LYS A   6      35.003   5.207   1.481  0.00  0.00    -0.089 HD
ATOM     21  HZ3 LYS A   6      34.950   4.042   0.246  0.00  0.00    -0.089 HD
ENDBRANCH  17  18
ENDBRANCH  16  17
ENDBRANCH  15  16
ENDBRANCH  14  15
ENDBRANCH  11  14
ENDBRANCH   9  11
ENDBRANCH   6   7
BRANCH   6  22
ATOM     22  CB  ARG A   5      33.129   9.750   8.530  0.00  0.00    +0.033 C 
BRANCH  22  23
ATOM     23  CG  ARG A   5      33.367  11.233   8.570  0.00  0.00    +0.045 C 
BRANCH  23  24
ATOM     24  CD  ARG A   5      33.952  11.724   7.263  0.00  0.00    +0.174 C 
BRANCH  24  25
ATOM     25  NE  ARG A   5      33.864  13.175   7.186  0.00  0.00    -0.265 N 
ATOM     26  CZ  ARG A   5      34.695  14.004   7.805  0.00  0.00    +0.342 C 
ATOM     27  NH2 ARG A   5      35.688  13.523   8.544  0.00  0.00    -0.292 N 
ATOM     28 HH21 ARG A   5      36.338  14.174   9.028  0.00  0.00    +0.255 HD
ATOM     29 HH22 ARG A   5      35.815  12.495   8.638  0.00  0.00    +0.255 HD
ATOM     30  NH1 ARG A   5      34.532  15.314   7.683  0.00  0.00    -0.292 N 
ATOM     31 HH11 ARG A   5      35.182  15.966   8.167  0.00  0.00    +0.255 HD
ATOM     32 HH12 ARG A   5      33.754  15.690   7.103  0.00  0.00    +0.255 HD
ATOM     33  HE  ARG A   5      33.103  13.588   6.610  0.00  0.00    +0.259 HD
ENDBRANCH  24  25
ENDBRANCH  23  24
ENDBRANCH  22  23
ENDBRANCH   6  22
ENDBRANCH   4   6
ENDBRANCH   1   2
BRANCH   1  36
ATOM     34  C   SER A   3      27.694   7.892  11.011  0.00  0.00    +0.243 C 
ATOM     35  O   SER A   3      28.457   7.168  11.646  0.00  0.00    -0.273 OA
ATOM     36  N   TYR A   4      27.902   8.225   9.744  0.00  0.00    -0.297 N 
ATOM     37  H   TYR A   4      27.245   8.874   9.265  0.00  0.00    +0.150 HD
BRANCH  34  38
ATOM     38  CA  SER A   3      26.453   8.463  11.660  0.00  0.00    +0.178 C 
BRANCH  38  40
ATOM     39  C   ASP A   2      24.440   7.080  11.828  0.00  0.00    +0.241 C 
ATOM     40  N   SER A   3      25.649   7.409  12.280  0.00  0.00    -0.295 N 
ATOM     41  H   SER A   3      26.034   6.900  13.101  0.00  0.00    +0.150 HD
ATOM     42  O   ASP A   2      23.933   7.587  10.829  0.00  0.00    -0.273 OA
BRANCH  39  43
ATOM     43  CA  ASP A   2      23.681   6.026  12.631  0.00  0.00    +0.160 C 
BRANCH  43  46
ATOM     44  C   GLU A   1      21.657   6.213  13.964  0.00  0.00    +0.238 C 
ATOM     45  O   GLU A   1      22.213   5.719  14.951  0.00  0.00    -0.274 OA
ATOM     46  N   ASP A   2      22.278   6.390  12.802  0.00  0.00    -0.297 N 
ATOM     47  H   ASP A   2      21.754   6.795  12.000  0.00  0.00    +0.150 HD
BRANCH  44  48
ATOM     48  CA  GLU A   1      20.190   6.627  14.025  0.00  0.00    +0.145 C 
BRANCH  48  49
ATOM     49  N   GLU A   1      19.443   5.605  14.739  0.00  0.00    -0.238 NA
ATOM     50  H   GLU A   1      19.971   4.849  15.219  0.00  0.00    +0.142 HD
ENDBRANCH  48  49
BRANCH  48  51
ATOM     51  CB  GLU A   1      20.038   7.975  14.727  0.00  0.00    +0.038 C 
BRANCH  51  52
ATOM     52  CG  GLU A   1      20.763   9.128  14.054  0.00  0.00    +0.116 C 
BRANCH  52  53
ATOM     53  CD  GLU A   1      20.436  10.469  14.693  0.00  0.00    +0.365 C 
ATOM     54  OE2 GLU A   1      20.982  10.771  15.780  0.00  0.00    -0.246 OA
ATOM     55  OE1 GLU A   1      19.624  11.215  14.101  0.00  0.00    -0.246 OA
ENDBRANCH  52  53
ENDBRANCH  51  52
ENDBRANCH  48  51
ENDBRANCH  44  48
ENDBRANCH  43  46
BRANCH  43  56
ATOM     56  CB  ASP A   2      23.808   4.649  11.980  0.00  0.00    +0.143 C 
BRANCH  56  57
ATOM     57  CG  ASP A   2      23.384   3.527  12.905  0.00  0.00    +0.367 C 
ATOM     58  OD2 ASP A   2      23.941   3.428  14.018  0.00  0.00    -0.246 OA
ATOM     59  OD1 ASP A   2      22.486   2.748  12.526  0.00  0.00    -0.246 OA
ENDBRANCH  56  57
ENDBRANCH  43  56
ENDBRANCH  39  43
ENDBRANCH  38  40
BRANCH  38  60
ATOM     60  CB  SER A   3      26.870   9.505  12.693  0.00  0.00    +0.166 C 
BRANCH  60  61
ATOM     61  OG  SER A   3      25.735  10.054  13.329  0.00  0.00    -0.380 OA
ATOM     62  H   SER A   3      25.232   9.333  13.784  0.00  0.00    +0.211 HD
ENDBRANCH  60  61
ENDBRANCH  38  60
ENDBRANCH  34  38
ENDBRANCH   1  36
BRANCH   1  63
ATOM     63  CB  TYR A   4      28.598   6.702   7.941  0.00  0.00    +0.055 C 
BRANCH  63  64
ATOM     64  CG  TYR A   4      27.881   5.500   8.491  0.00  0.00    -0.020 A 
ATOM     65  CD2 TYR A   4      28.589   4.411   8.979  0.00  0.00    -0.001 A 
ATOM     66  CE2 TYR A   4      27.933   3.296   9.484  0.00  0.00    +0.036 A 
ATOM     67  CZ  TYR A   4      26.555   3.272   9.514  0.00  0.00    +0.134 A 
ATOM     68  CE1 TYR A   4      25.829   4.345   9.031  0.00  0.00    +0.036 A 
ATOM     69  CD1 TYR A   4      26.495   5.452   8.526  0.00  0.00    -0.001 A 
BRANCH  67  70
ATOM     70  OH  TYR A   4      25.905   2.163  10.017  0.00  0.00    -0.506 OA
ATOM     71  HH  TYR A   4      24.926   2.305   9.968  0.00  0.00    +0.292 HD
ENDBRANCH  67  70
ENDBRANCH  63  64
ENDBRANCH   1  63
TORSDOF 31
REMARK  Name = ../refined-set-2016/4dst/4dst_pocket.pdb
REMARK  127 active torsions:
REMARK  status: ('A' for Active; 'I' for Inactive)
REMARK    1  A    between atoms: _1  and  _3
REMARK    2  A    between atoms: _3  and  _4
REMARK    3  A    between atoms: _3  and  _6
REMARK    4  A    between atoms: _6  and  _7
REMARK    5  A    between atoms: _7  and  _8
REMARK    6  A    between atoms: _11  and  _13
REMARK    7  A    between atoms: _13  and  _14
REMARK    8  A    between atoms: _13  and  _16
REMARK    9  A    between atoms: _16  and  _17
REMARK   10  A    between atoms: _22  and  _23
REMARK   11  A    between atoms: _25  and  _27
REMARK   12  A    between atoms: _27  and  _28
REMARK   13  A    between atoms: _27  and  _30
REMARK   14  A    between atoms: _30  and  _31
REMARK   15  A    between atoms: _31  and  _32
REMARK   16  A    between atoms: _32  and  _33
REMARK   17  A    between atoms: _33  and  _34
REMARK   18  A    between atoms: _38  and  _40
REMARK   19  A    between atoms: _40  and  _41
REMARK   20  A    between atoms: _40  and  _43
REMARK   21  A    between atoms: _43  and  _44
REMARK   22  A    between atoms: _47  and  _49
REMARK   23  A    between atoms: _49  and  _50
REMARK   24  A    between atoms: _49  and  _52
REMARK   25  A    between atoms: _55  and  _57
REMARK   26  A    between atoms: _57  and  _58
REMARK   27  A    between atoms: _57  and  _60
REMARK   28  A    between atoms: _63  and  _65
REMARK   29  A    between atoms: _65  and  _66
REMARK   30  A    between atoms: _65  and  _68
REMARK   31  A    between atoms: _68  and  _69
REMARK   32  A    between atoms: _69  and  _70
REMARK   33  A    between atoms: _73  and  _75
REMARK   34  A    between atoms: _75  and  _76
REMARK   35  A    between atoms: _75  and  _78
REMARK   36  A    between atoms: _78  and  _79
REMARK   37  A    between atoms: _82  and  _84
REMARK   38  A    between atoms: _84  and  _85
REMARK   39  A    between atoms: _84  and  _87
REMARK   40  A    between atoms: _87  and  _88
REMARK   41  A    between atoms: _90  and  _92
REMARK   42  A    between atoms: _92  and  _93
REMARK   43  A    between atoms: _92  and  _95
REMARK   44  A    between atoms: _95  and  _96
REMARK   45  A    between atoms: _101  and  _102
REMARK   46  A    between atoms: _104  and  _106
REMARK   47  A    between atoms: _106  and  _107
REMARK   48  A    between atoms: _106  and  _109
REMARK   49  A    between atoms: _109  and  _110
REMARK   50  A    between atoms: _110  and  _111
REMARK   51  A    between atoms: _111  and  _112
REMARK   52  A    between atoms: _121  and  _123
REMARK   53  A    between atoms: _123  and  _124
REMARK   54  A    between atoms: _123  and  _126
REMARK   55  A    between atoms: _126  and  _127
REMARK   56  A    between atoms: _127  and  _128
REMARK   57  A    between atoms: _128  and  _129
REMARK   58  A    between atoms: _129  and  _130
REMARK   59  A    between atoms: _134  and  _136
REMARK   60  A    between atoms: _136  and  _137
REMARK   61  A    between atoms: _136  and  _139
REMARK   62  A    between atoms: _139  and  _140
REMARK   63  A    between atoms: _143  and  _145
REMARK   64  A    between atoms: _145  and  _146
REMARK   65  A    between atoms: _145  and  _148
REMARK   66  A    between atoms: _148  and  _149
REMARK   67  A    between atoms: _152  and  _154
REMARK   68  A    between atoms: _154  and  _155
REMARK   69  A    between atoms: _154  and  _157
REMARK   70  A    between atoms: _157  and  _158
REMARK   71  A    between atoms: _161  and  _163
REMARK   72  A    between atoms: _163  and  _164
REMARK   73  A    between atoms: _163  and  _166
REMARK   74  A    between atoms: _166  and  _167
REMARK   75  A    between atoms: _170  and  _172
REMARK   76  A    between atoms: _172  and  _173
REMARK   77  A    between atoms: _172  and  _175
REMARK   78  A    between atoms: _175  and  _176
REMARK   79  A    between atoms: _179  and  _181
REMARK   80  A    between atoms: _181  and  _182
REMARK   81  A    between atoms: _181  and  _184
REMARK   82  A    between atoms: _184  and  _185
REMARK   83  A    between atoms: _188  and  _190
REMARK   84  A    between atoms: _190  and  _191
REMARK   85  A    between atoms: _190  and  _193
REMARK   86  A    between atoms: _193  and  _194
REMARK   87  A    between atoms: _194  and  _195
REMARK   88  A    between atoms: _200  and  _202
REMARK   89  A    between atoms: _202  and  _203
REMARK   90  A    between atoms: _202  and  _205
REMARK   91  A    between atoms: _205  and  _206
REMARK   92  A    between atoms: _211  and  _212
REMARK   93  A    between atoms: _214  and  _216
REMARK   94  A    between atoms: _216  and  _217
REMARK   95  A    between atoms: _216  and  _219
REMARK   96  A    between atoms: _219  and  _220
REMARK   97  A    between atoms: _220  and  _221
REMARK   98  A    between atoms: _223  and  _225
REMARK   99  A    between atoms: _225  and  _226
REMARK  100  A    between atoms: _225  and  _228
REMARK  101  A    between atoms: _228  and  _229
REMARK  102  A    between atoms: _229  and  _230
REMARK  103  A    between atoms: _230  and  _231
REMARK  104  A    between atoms: _240  and  _242
REMARK  105  A    between atoms: _242  and  _243
REMARK  106  A    between atoms: _242  and  _245
REMARK  107  A    between atoms: _245  and  _246
REMARK  108  A    between atoms: _249  and  _251
REMARK  109  A    between atoms: _251  and  _252
REMARK  110  A    between atoms: _254  and  _256
REMARK  111  A    between atoms: _256  and  _257
REMARK  112  A    between atoms: _256  and  _259
REMARK  113  A    between atoms: _259  and  _260
REMARK  114  A    between atoms: _260  and  _261
REMARK  115  A    between atoms: _264  and  _266
REMARK  116  A    between atoms: _266  and  _267
REMARK  117  A    between atoms: _269  and  _271
REMARK  118  A    between atoms: _271  and  _272
REMARK  119  A    between atoms: _271  and  _274
REMARK  120  A    between atoms: _274  and  _275
REMARK  121  A    between atoms: _281  and  _283
REMARK  122  A    between atoms: _283  and  _284
REMARK  123  A    between atoms: _283  and  _286
REMARK  124  A    between atoms: _286  and  _287
REMARK  125  A    between atoms: _287  and  _288
REMARK  126  A    between atoms: _288  and  _289
REMARK  127  A    between atoms: _289  and  _290
REMARK                            x       y       z     vdW  Elec       q    Type
REMARK                         _______ _______ _______ _____ _____    ______ ____
ROOT
ATOM      1  C   ILE A   3      25.386  10.273   7.393  0.00  0.00    +0.241 C 
ATOM      2  O   ILE A   3      25.843   9.511   8.244  0.00  0.00    -0.273 OA
ATOM      3  N   LEU A   4      24.163  10.788   7.468  0.00  0.00    -0.297 N 
ATOM      4  H   LEU A   4      23.856  11.482   6.757  0.00  0.00    +0.150 HD
ENDROOT
BRANCH   1   5
ATOM      5  CA  ILE A   3      26.210  10.680   6.177  0.00  0.00    +0.149 C 
BRANCH   5   7
ATOM      6  C   ASP A   2      27.590  12.661   6.414  0.00  0.00    +0.241 C 
ATOM      7  N   ILE A   3      27.461  11.344   6.525  0.00  0.00    -0.297 N 
ATOM      8  H   ILE A   3      28.264  10.778   6.865  0.00  0.00    +0.150 HD
ATOM      9  O   ASP A   2      26.653  13.408   6.123  0.00  0.00    -0.273 OA
BRANCH   6  10
ATOM     10  CA  ASP A   2      28.970  13.229   6.665  0.00  0.00    +0.160 C 
BRANCH  10  13
ATOM     11  C   LEU A   1      30.462  12.651   4.825  0.00  0.00    +0.238 C 
ATOM     12  O   LEU A   1      30.913  11.673   5.416  0.00  0.00    -0.274 OA
ATOM     13  N   ASP A   2      29.586  13.489   5.370  0.00  0.00    -0.297 N 
ATOM     14  H   ASP A   2      29.332  14.357   4.856  0.00  0.00    +0.150 HD
BRANCH  11  15
ATOM     15  CA  LEU A   1      30.905  12.966   3.401  0.00  0.00    +0.145 C 
BRANCH  15  16
ATOM     16  N   LEU A   1      32.344  13.213   3.325  0.00  0.00    -0.238 NA
ATOM     17  H   LEU A   1      32.987  12.412   3.160  0.00  0.00    +0.142 HD
ENDBRANCH  15  16
BRANCH  15  18
ATOM     18  CB  LEU A   1      30.491  11.823   2.461  0.00  0.00    +0.026 C 
BRANCH  18  19
ATOM     19  CG  LEU A   1      30.837  11.972   0.974  0.00  0.00    +0.002 C 
ATOM     20  CD2 LEU A   1      30.315  13.287   0.431  0.00  0.00    +0.000 C 
ATOM     21  CD1 LEU A   1      30.299  10.807   0.160  0.00  0.00    +0.000 C 
ENDBRANCH  18  19
ENDBRANCH  15  18
ENDBRANCH  11  15
ENDBRANCH  10  13
BRANCH  10  22
ATOM     22  CB  ASP A   2      28.842  14.514   7.483  0.00  0.00    +0.143 C 
BRANCH  22  23
ATOM     23  CG  ASP A   2      30.161  14.969   8.064  0.00  0.00    +0.367 C 
ATOM     24  OD2 ASP A   2      30.894  14.111   8.600  0.00  0.00    -0.246 OA
ATOM     25  OD1 ASP A   2      30.464  16.181   7.991  0.00  0.00    -0.246 OA
ENDBRANCH  22  23
ENDBRANCH  10  22
ENDBRANCH   6  10
ENDBRANCH   5   7
BRANCH   5  26
ATOM     26  CB  ILE A   3      26.458   9.451   5.285  0.00  0.00    +0.027 C 
ATOM     27  CG2 ILE A   3      25.134   8.789   4.910  0.00  0.00    +0.002 C 
BRANCH  26  28
ATOM     28  CG1 ILE A   3      27.237   9.867   4.030  0.00  0.00    +0.002 C 
ATOM     29  CD1 ILE A   3      27.993   8.723   3.356  0.00  0.00    +0.000 C 
ENDBRANCH  26  28
ENDBRANCH   5  26
ENDBRANCH   1   5
BRANCH   3  30
ATOM     30  CA  LEU A   4      23.248  10.396   8.528  0.00  0.00    +0.149 C 
BRANCH  30  31
ATOM     31  C   LEU A   4      22.252   9.355   8.013  0.00  0.00    +0.241 C 
ATOM     32  N   ASP A   5      22.220   8.206   8.674  0.00  0.00    -0.297 N 
ATOM     33  H   ASP A   5      22.876   8.064   9.469  0.00  0.00    +0.150 HD
ATOM     34  O   LEU A   4      21.543   9.578   7.035  0.00  0.00    -0.273 OA
BRANCH  32  35
ATOM     35  CA  ASP A   5      21.299   7.140   8.324  0.00  0.00    +0.160 C 
BRANCH  35  36
ATOM     36  C   ASP A   5      20.175   7.147   9.360  0.00  0.00    +0.241 C 
ATOM     37  O   ASP A   5      20.420   6.985  10.554  0.00  0.00    -0.273 OA
ATOM     38  N   THR A   6      18.946   7.351   8.890  0.00  0.00    -0.296 N 
ATOM     39  H   THR A   6      18.782   7.292   7.865  0.00  0.00    +0.150 HD
BRANCH  38  40
ATOM     40  CA  THR A   6      17.826   7.654   9.767  0.00  0.00    +0.164 C 
BRANCH  40  41
ATOM     41  C   THR A   6      16.886   6.466   9.944  0.00  0.00    +0.229 C 
ATOM     42  O   THR A   6      16.987   5.478   9.225  0.00  0.00    -0.286 OA
ENDBRANCH  40  41
BRANCH  40  43
ATOM     43  CB  THR A   6      17.032   8.857   9.230  0.00  0.00    +0.136 C 
ATOM     44  CG2 THR A   6      17.963  10.052   9.017  0.00  0.00    +0.034 C 
BRANCH  43  45
ATOM     45  OG1 THR A   6      16.397   8.504   7.993  0.00  0.00    -0.382 OA
ATOM     46  HG1 THR A   6      17.086   8.244   7.332  0.00  0.00    +0.210 HD
ENDBRANCH  43  45
ENDBRANCH  40  43
ENDBRANCH  38  40
ENDBRANCH  35  36
BRANCH  35  47
ATOM     47  CB  ASP A   5      22.042   5.806   8.298  0.00  0.00    +0.143 C 
BRANCH  47  48
ATOM     48  CG  ASP A   5      21.155   4.646   7.916  0.00  0.00    +0.367 C 
ATOM     49  OD2 ASP A   5      21.523   3.490   8.227  0.00  0.00    -0.246 OA
ATOM     50  OD1 ASP A   5      20.096   4.885   7.304  0.00  0.00    -0.246 OA
ENDBRANCH  47  48
ENDBRANCH  35  47
ENDBRANCH  32  35
ENDBRANCH  30  31
BRANCH  30  51
ATOM     51  CB  LEU A   4      22.511  11.616   9.080  0.00  0.00    +0.029 C 
BRANCH  51  52
ATOM     52  CG  LEU A   4      21.631  11.402  10.315  0.00  0.00    +0.002 C 
ATOM     53  CD2 LEU A   4      22.473  10.977  11.509  0.00  0.00    +0.000 C 
ATOM     54  CD1 LEU A   4      20.855  12.669  10.642  0.00  0.00    +0.000 C 
ENDBRANCH  51  52
ENDBRANCH  30  51
ENDBRANCH   3  30
TORSDOF 24
REMARK  Name = ../refined-set-2016/4dst/4dst_pocket.pdb
REMARK  127 active torsions:
REMARK  status: ('A' for Active; 'I' for Inactive)
REMARK    1  A    between atoms: _1  and  _3
REMARK    2  A    between atoms: _3  and  _4
REMARK    3  A    between atoms: _3  and  _6
REMARK    4  A    between atoms: _6  and  _7
REMARK    5  A    between atoms: _7  and  _8
REMARK    6  A    between atoms: _11  and  _13
REMARK    7  A    between atoms: _13  and  _14
REMARK    8  A    between atoms: _13  and  _16
REMARK    9  A    between atoms: _16  and  _17
REMARK   10  A    between atoms: _22  and  _23
REMARK   11  A    between atoms: _25  and  _27
REMARK   12  A    between atoms: _27  and  _28
REMARK   13  A    between atoms: _27  and  _30
REMARK   14  A    between atoms: _30  and  _31
REMARK   15  A    between atoms: _31  and  _32
REMARK   16  A    between atoms: _32  and  _33
REMARK   17  A    between atoms: _33  and  _34
REMARK   18  A    between atoms: _38  and  _40
REMARK   19  A    between atoms: _40  and  _41
REMARK   20  A    between atoms: _40  and  _43
REMARK   21  A    between atoms: _43  and  _44
REMARK   22  A    between atoms: _47  and  _49
REMARK   23  A    between atoms: _49  and  _50
REMARK   24  A    between atoms: _49  and  _52
REMARK   25  A    between atoms: _55  and  _57
REMARK   26  A    between atoms: _57  and  _58
REMARK   27  A    between atoms: _57  and  _60
REMARK   28  A    between atoms: _63  and  _65
REMARK   29  A    between atoms: _65  and  _66
REMARK   30  A    between atoms: _65  and  _68
REMARK   31  A    between atoms: _68  and  _69
REMARK   32  A    between atoms: _69  and  _70
REMARK   33  A    between atoms: _73  and  _75
REMARK   34  A    between atoms: _75  and  _76
REMARK   35  A    between atoms: _75  and  _78
REMARK   36  A    between atoms: _78  and  _79
REMARK   37  A    between atoms: _82  and  _84
REMARK   38  A    between atoms: _84  and  _85
REMARK   39  A    between atoms: _84  and  _87
REMARK   40  A    between atoms: _87  and  _88
REMARK   41  A    between atoms: _90  and  _92
REMARK   42  A    between atoms: _92  and  _93
REMARK   43  A    between atoms: _92  and  _95
REMARK   44  A    between atoms: _95  and  _96
REMARK   45  A    between atoms: _101  and  _102
REMARK   46  A    between atoms: _104  and  _106
REMARK   47  A    between atoms: _106  and  _107
REMARK   48  A    between atoms: _106  and  _109
REMARK   49  A    between atoms: _109  and  _110
REMARK   50  A    between atoms: _110  and  _111
REMARK   51  A    between atoms: _111  and  _112
REMARK   52  A    between atoms: _121  and  _123
REMARK   53  A    between atoms: _123  and  _124
REMARK   54  A    between atoms: _123  and  _126
REMARK   55  A    between atoms: _126  and  _127
REMARK   56  A    between atoms: _127  and  _128
REMARK   57  A    between atoms: _128  and  _129
REMARK   58  A    between atoms: _129  and  _130
REMARK   59  A    between atoms: _134  and  _136
REMARK   60  A    between atoms: _136  and  _137
REMARK   61  A    between atoms: _136  and  _139
REMARK   62  A    between atoms: _139  and  _140
REMARK   63  A    between atoms: _143  and  _145
REMARK   64  A    between atoms: _145  and  _146
REMARK   65  A    between atoms: _145  and  _148
REMARK   66  A    between atoms: _148  and  _149
REMARK   67  A    between atoms: _152  and  _154
REMARK   68  A    between atoms: _154  and  _155
REMARK   69  A    between atoms: _154  and  _157
REMARK   70  A    between atoms: _157  and  _158
REMARK   71  A    between atoms: _161  and  _163
REMARK   72  A    between atoms: _163  and  _164
REMARK   73  A    between atoms: _163  and  _166
REMARK   74  A    between atoms: _166  and  _167
REMARK   75  A    between atoms: _170  and  _172
REMARK   76  A    between atoms: _172  and  _173
REMARK   77  A    between atoms: _172  and  _175
REMARK   78  A    between atoms: _175  and  _176
REMARK   79  A    between atoms: _179  and  _181
REMARK   80  A    between atoms: _181  and  _182
REMARK   81  A    between atoms: _181  and  _184
REMARK   82  A    between atoms: _184  and  _185
REMARK   83  A    between atoms: _188  and  _190
REMARK   84  A    between atoms: _190  and  _191
REMARK   85  A    between atoms: _190  and  _193
REMARK   86  A    between atoms: _193  and  _194
REMARK   87  A    between atoms: _194  and  _195
REMARK   88  A    between atoms: _200  and  _202
REMARK   89  A    between atoms: _202  and  _203
REMARK   90  A    between atoms: _202  and  _205
REMARK   91  A    between atoms: _205  and  _206
REMARK   92  A    between atoms: _211  and  _212
REMARK   93  A    between atoms: _214  and  _216
REMARK   94  A    between atoms: _216  and  _217
REMARK   95  A    between atoms: _216  and  _219
REMARK   96  A    between atoms: _219  and  _220
REMARK   97  A    between atoms: _220  and  _221
REMARK   98  A    between atoms: _223  and  _225
REMARK   99  A    between atoms: _225  and  _226
REMARK  100  A    between atoms: _225  and  _228
REMARK  101  A    between atoms: _228  and  _229
REMARK  102  A    between atoms: _229  and  _230
REMARK  103  A    between atoms: _230  and  _231
REMARK  104  A    between atoms: _240  and  _242
REMARK  105  A    between atoms: _242  and  _243
REMARK  106  A    between atoms: _242  and  _245
REMARK  107  A    between atoms: _245  and  _246
REMARK  108  A    between atoms: _249  and  _251
REMARK  109  A    between atoms: _251  and  _252
REMARK  110  A    between atoms: _254  and  _256
REMARK  111  A    between atoms: _256  and  _257
REMARK  112  A    between atoms: _256  and  _259
REMARK  113  A    between atoms: _259  and  _260
REMARK  114  A    between atoms: _260  and  _261
REMARK  115  A    between atoms: _264  and  _266
REMARK  116  A    between atoms: _266  and  _267
REMARK  117  A    between atoms: _269  and  _271
REMARK  118  A    between atoms: _271  and  _272
REMARK  119  A    between atoms: _271  and  _274
REMARK  120  A    between atoms: _274  and  _275
REMARK  121  A    between atoms: _281  and  _283
REMARK  122  A    between atoms: _283  and  _284
REMARK  123  A    between atoms: _283  and  _286
REMARK  124  A    between atoms: _286  and  _287
REMARK  125  A    between atoms: _287  and  _288
REMARK  126  A    between atoms: _288  and  _289
REMARK  127  A    between atoms: _289  and  _290
REMARK                            x       y       z     vdW  Elec       q    Type
REMARK                         _______ _______ _______ _____ _____    ______ ____
ROOT
ATOM      1  CA  ARG A   4      17.337  21.300   9.107  0.00  0.00    +0.149 C 
ENDROOT
BRANCH   1   2
ATOM      2  C   ARG A   4      18.815  21.275   8.742  0.00  0.00    +0.241 C 
ATOM      3  N   THR A   5      19.520  20.267   9.242  0.00  0.00    -0.295 N 
ATOM      4  H   THR A   5      19.021  19.497   9.732  0.00  0.00    +0.150 HD
ATOM      5  O   ARG A   4      19.307  22.150   8.033  0.00  0.00    -0.273 OA
BRANCH   3   6
ATOM      6  CA  THR A   5      20.973  20.205   9.126  0.00  0.00    +0.176 C 
BRANCH   6   7
ATOM      7  C   THR A   5      21.456  19.643   7.788  0.00  0.00    +0.243 C 
ATOM      8  N   GLY A   6      20.738  18.660   7.256  0.00  0.00    -0.295 N 
ATOM      9  H   GLY A   6      19.873  18.337   7.735  0.00  0.00    +0.150 HD
ATOM     10  O   THR A   5      22.466  20.093   7.246  0.00  0.00    -0.273 OA
BRANCH   8  11
ATOM     11  CA  GLY A   6      21.147  18.032   6.013  0.00  0.00    +0.176 C 
BRANCH  11  12
ATOM     12  C   GLY A   6      21.281  19.019   4.869  0.00  0.00    +0.243 C 
ATOM     13  O   GLY A   6      20.392  19.837   4.639  0.00  0.00    -0.273 OA
ATOM     14  N   GLU A   7      22.389  18.945   4.141  0.00  0.00    -0.297 N 
ATOM     15  H   GLU A   7      23.150  18.295   4.425  0.00  0.00    +0.150 HD
BRANCH  14  16
ATOM     16  CA  GLU A   7      22.548  19.769   2.944  0.00  0.00    +0.149 C 
BRANCH  16  17
ATOM     17  C   GLU A   7      21.934  19.072   1.737  0.00  0.00    +0.241 C 
ATOM     18  N   GLY A   8      22.000  17.746   1.731  0.00  0.00    -0.295 N 
ATOM     19  H   GLY A   8      22.480  17.257   2.514  0.00  0.00    +0.150 HD
ATOM     20  O   GLU A   7      21.407  19.716   0.836  0.00  0.00    -0.273 OA
BRANCH  18  21
ATOM     21  CA  GLY A   8      21.417  16.962   0.655  0.00  0.00    +0.176 C 
BRANCH  21  22
ATOM     22  C   GLY A   8      20.718  15.731   1.192  0.00  0.00    +0.243 C 
ATOM     23  O   GLY A   8      21.140  15.163   2.205  0.00  0.00    -0.273 OA
ATOM     24  N   PHE A   9      19.652  15.317   0.513  0.00  0.00    -0.298 N 
ATOM     25  H   PHE A   9      19.386  15.802  -0.367  0.00  0.00    +0.150 HD
BRANCH  24  26
ATOM     26  CA  PHE A   9      18.851  14.194   0.983  0.00  0.00    +0.141 C 
BRANCH  26  27
ATOM     27  C   PHE A   9      18.734  13.087  -0.057  0.00  0.00    +0.227 C 
ATOM     28  O   PHE A   9      18.350  13.332  -1.200  0.00  0.00    -0.286 OA
ENDBRANCH  26  27
BRANCH  26  29
ATOM     29  CB  PHE A   9      17.454  14.674   1.394  0.00  0.00    +0.054 C 
BRANCH  29  30
ATOM     30  CG  PHE A   9      17.469  15.667   2.526  0.00  0.00    -0.020 A 
ATOM     31  CD2 PHE A   9      17.366  15.239   3.846  0.00  0.00    -0.004 A 
ATOM     32  CE2 PHE A   9      17.399  16.148   4.896  0.00  0.00    -0.000 A 
ATOM     33  CZ  PHE A   9      17.532  17.505   4.631  0.00  0.00    -0.000 A 
ATOM     34  CE1 PHE A   9      17.637  17.943   3.321  0.00  0.00    -0.000 A 
ATOM     35  CD1 PHE A   9      17.610  17.022   2.275  0.00  0.00    -0.004 A 
ENDBRANCH  29  30
ENDBRANCH  26  29
ENDBRANCH  24  26
ENDBRANCH  21  22
ENDBRANCH  18  21
ENDBRANCH  16  17
BRANCH  16  36
ATOM     36  CB  GLU A   7      24.019  20.086   2.693  0.00  0.00    +0.041 C 
BRANCH  36  37
ATOM     37  CG  GLU A   7      24.652  20.939   3.784  0.00  0.00    +0.116 C 
BRANCH  37  38
ATOM     38  CD  GLU A   7      26.139  21.145   3.570  0.00  0.00    +0.365 C 
ATOM     39  OE2 GLU A   7      26.587  22.310   3.605  0.00  0.00    -0.246 OA
ATOM     40  OE1 GLU A   7      26.856  20.144   3.362  0.00  0.00    -0.246 OA
ENDBRANCH  37  38
ENDBRANCH  36  37
ENDBRANCH  16  36
ENDBRANCH  14  16
ENDBRANCH  11  12
ENDBRANCH   8  11
ENDBRANCH   6   7
BRANCH   6  41
ATOM     41  CB  THR A   5      21.574  19.380  10.283  0.00  0.00    +0.137 C 
ATOM     42  CG2 THR A   5      21.286  20.061  11.611  0.00  0.00    +0.034 C 
BRANCH  41  43
ATOM     43  OG1 THR A   5      20.980  18.076  10.301  0.00  0.00    -0.382 OA
ATOM     44  HG1 THR A   5      20.002  18.162  10.430  0.00  0.00    +0.210 HD
ENDBRANCH  41  43
ENDBRANCH   6  41
ENDBRANCH   3   6
ENDBRANCH   1   2
BRANCH   1  46
ATOM     45  C   MET A   3      16.417  19.414   7.877  0.00  0.00    +0.241 C 
ATOM     46  N   ARG A   4      16.745  19.966   9.042  0.00  0.00    -0.297 N 
ATOM     47  H   ARG A   4      16.577  19.438   9.922  0.00  0.00    +0.150 HD
ATOM     48  O   MET A   3      16.532  20.014   6.807  0.00  0.00    -0.273 OA
BRANCH  45  49
ATOM     49  CA  MET A   3      15.869  17.977   7.912  0.00  0.00    +0.149 C 
BRANCH  49  51
ATOM     50  C   TYR A   2      17.626  16.902   9.168  0.00  0.00    +0.241 C 
ATOM     51  N   MET A   3      16.345  17.226   9.064  0.00  0.00    -0.297 N 
ATOM     52  H   MET A   3      15.677  16.942   9.809  0.00  0.00    +0.150 HD
ATOM     53  O   TYR A   2      18.440  17.173   8.289  0.00  0.00    -0.273 OA
BRANCH  50  54
ATOM     54  CA  TYR A   2      18.070  16.220  10.470  0.00  0.00    +0.153 C 
BRANCH  54  57
ATOM     55  C   GLN A   1      17.393  17.776  12.169  0.00  0.00    +0.238 C 
ATOM     56  O   GLN A   1      18.242  18.575  11.775  0.00  0.00    -0.274 OA
ATOM     57  N   TYR A   2      17.233  16.581  11.608  0.00  0.00    -0.297 N 
ATOM     58  H   TYR A   2      16.523  15.915  11.975  0.00  0.00    +0.150 HD
BRANCH  55  59
ATOM     59  CA  GLN A   1      16.486  18.136  13.345  0.00  0.00    +0.145 C 
BRANCH  59  60
ATOM     60  N   GLN A   1      15.085  17.812  13.108  0.00  0.00    -0.238 NA
ATOM     61  H   GLN A   1      14.613  17.103  13.705  0.00  0.00    +0.142 HD
ENDBRANCH  59  60
BRANCH  59  62
ATOM     62  CB  GLN A   1      17.002  17.490  14.630  0.00  0.00    +0.036 C 
BRANCH  62  63
ATOM     63  CG  GLN A   1      18.488  17.712  14.840  0.00  0.00    +0.087 C 
BRANCH  63  64
ATOM     64  CD  GLN A   1      18.927  17.513  16.275  0.00  0.00    +0.219 C 
ATOM     65  OE1 GLN A   1      18.786  18.409  17.111  0.00  0.00    -0.275 OA
ATOM     66  NE2 GLN A   1      19.476  16.341  16.568  0.00  0.00    -0.329 N 
ATOM     67 HE21 GLN A   1      19.807  16.149  17.535  0.00  0.00    +0.145 HD
ATOM     68 HE22 GLN A   1      19.575  15.614  15.831  0.00  0.00    +0.145 HD
ENDBRANCH  63  64
ENDBRANCH  62  63
ENDBRANCH  59  62
ENDBRANCH  55  59
ENDBRANCH  54  57
BRANCH  54  69
ATOM     69  CB  TYR A   2      18.254  14.699  10.327  0.00  0.00    +0.055 C 
BRANCH  69  70
ATOM     70  CG  TYR A   2      17.036  13.862   9.980  0.00  0.00    -0.020 A 
ATOM     71  CD2 TYR A   2      16.545  12.911  10.875  0.00  0.00    -0.001 A 
ATOM     72  CE2 TYR A   2      15.453  12.120  10.555  0.00  0.00    +0.036 A 
ATOM     73  CZ  TYR A   2      14.841  12.261   9.320  0.00  0.00    +0.134 A 
ATOM     74  CE1 TYR A   2      15.315  13.189   8.411  0.00  0.00    +0.036 A 
ATOM     75  CD1 TYR A   2      16.412  13.977   8.741  0.00  0.00    -0.001 A 
BRANCH  73  76
ATOM     76  OH  TYR A   2      13.750  11.473   8.997  0.00  0.00    -0.506 OA
ATOM     77  HH  TYR A   2      13.545  10.869   9.754  0.00  0.00    +0.292 HD
ENDBRANCH  73  76
ENDBRANCH  69  70
ENDBRANCH  54  69
ENDBRANCH  50  54
ENDBRANCH  49  51
BRANCH  49  78
ATOM     78  CB  MET A   3      14.341  17.972   7.873  0.00  0.00    +0.041 C 
BRANCH  78  79
ATOM     79  CG  MET A   3      13.752  16.582   7.664  0.00  0.00    +0.060 C 
BRANCH  79  80
ATOM     80  SD  MET A   3      11.971  16.593   7.403  0.00  0.00    -0.139 S 
ATOM     81  CE  MET A   3      11.748  14.980   6.653  0.00  0.00    +0.069 C 
ENDBRANCH  79  80
ENDBRANCH  78  79
ENDBRANCH  49  78
ENDBRANCH  45  49
ENDBRANCH   1  46
BRANCH   1  82
ATOM     82  CB  ARG A   4      17.197  21.887  10.508  0.00  0.00    +0.033 C 
BRANCH  82  83
ATOM     83  CG  ARG A   4      15.802  22.329  10.866  0.00  0.00    +0.045 C 
BRANCH  83  84
ATOM     84  CD  ARG A   4      15.827  23.192  12.111  0.00  0.00    +0.174 C 
BRANCH  84  85
ATOM     85  NE  ARG A   4      16.160  22.409  13.292  0.00  0.00    -0.265 N 
ATOM     86  CZ  ARG A   4      15.254  21.848  14.081  0.00  0.00    +0.342 C 
ATOM     87  NH2 ARG A   4      15.636  21.150  15.142  0.00  0.00    -0.292 N 
ATOM     88 HH21 ARG A   4      14.924  20.711  15.760  0.00  0.00    +0.255 HD
ATOM     89 HH22 ARG A   4      16.648  21.042  15.357  0.00  0.00    +0.255 HD
ATOM     90  NH1 ARG A   4      13.963  21.994  13.806  0.00  0.00    -0.292 N 
ATOM     91 HH11 ARG A   4      13.248  21.556  14.421  0.00  0.00    +0.255 HD
ATOM     92 HH12 ARG A   4      13.667  22.546  12.976  0.00  0.00    +0.255 HD
ATOM     93  HE  ARG A   4      17.164  22.283  13.530  0.00  0.00    +0.259 HD
ENDBRANCH  84  85
ENDBRANCH  83  84
ENDBRANCH  82  83
ENDBRANCH   1  82
TORSDOF 38
REMARK  Name = ../refined-set-2016/4dst/4dst_pocket.pdb
REMARK  127 active torsions:
REMARK  status: ('A' for Active; 'I' for Inactive)
REMARK    1  A    between atoms: _1  and  _3
REMARK    2  A    between atoms: _3  and  _4
REMARK    3  A    between atoms: _3  and  _6
REMARK    4  A    between atoms: _6  and  _7
REMARK    5  A    between atoms: _7  and  _8
REMARK    6  A    between atoms: _11  and  _13
REMARK    7  A    between atoms: _13  and  _14
REMARK    8  A    between atoms: _13  and  _16
REMARK    9  A    between atoms: _16  and  _17
REMARK   10  A    between atoms: _22  and  _23
REMARK   11  A    between atoms: _25  and  _27
REMARK   12  A    between atoms: _27  and  _28
REMARK   13  A    between atoms: _27  and  _30
REMARK   14  A    between atoms: _30  and  _31
REMARK   15  A    between atoms: _31  and  _32
REMARK   16  A    between atoms: _32  and  _33
REMARK   17  A    between atoms: _33  and  _34
REMARK   18  A    between atoms: _38  and  _40
REMARK   19  A    between atoms: _40  and  _41
REMARK   20  A    between atoms: _40  and  _43
REMARK   21  A    between atoms: _43  and  _44
REMARK   22  A    between atoms: _47  and  _49
REMARK   23  A    between atoms: _49  and  _50
REMARK   24  A    between atoms: _49  and  _52
REMARK   25  A    between atoms: _55  and  _57
REMARK   26  A    between atoms: _57  and  _58
REMARK   27  A    between atoms: _57  and  _60
REMARK   28  A    between atoms: _63  and  _65
REMARK   29  A    between atoms: _65  and  _66
REMARK   30  A    between atoms: _65  and  _68
REMARK   31  A    between atoms: _68  and  _69
REMARK   32  A    between atoms: _69  and  _70
REMARK   33  A    between atoms: _73  and  _75
REMARK   34  A    between atoms: _75  and  _76
REMARK   35  A    between atoms: _75  and  _78
REMARK   36  A    between atoms: _78  and  _79
REMARK   37  A    between atoms: _82  and  _84
REMARK   38  A    between atoms: _84  and  _85
REMARK   39  A    between atoms: _84  and  _87
REMARK   40  A    between atoms: _87  and  _88
REMARK   41  A    between atoms: _90  and  _92
REMARK   42  A    between atoms: _92  and  _93
REMARK   43  A    between atoms: _92  and  _95
REMARK   44  A    between atoms: _95  and  _96
REMARK   45  A    between atoms: _101  and  _102
REMARK   46  A    between atoms: _104  and  _106
REMARK   47  A    between atoms: _106  and  _107
REMARK   48  A    between atoms: _106  and  _109
REMARK   49  A    between atoms: _109  and  _110
REMARK   50  A    between atoms: _110  and  _111
REMARK   51  A    between atoms: _111  and  _112
REMARK   52  A    between atoms: _121  and  _123
REMARK   53  A    between atoms: _123  and  _124
REMARK   54  A    between atoms: _123  and  _126
REMARK   55  A    between atoms: _126  and  _127
REMARK   56  A    between atoms: _127  and  _128
REMARK   57  A    between atoms: _128  and  _129
REMARK   58  A    between atoms: _129  and  _130
REMARK   59  A    between atoms: _134  and  _136
REMARK   60  A    between atoms: _136  and  _137
REMARK   61  A    between atoms: _136  and  _139
REMARK   62  A    between atoms: _139  and  _140
REMARK   63  A    between atoms: _143  and  _145
REMARK   64  A    between atoms: _145  and  _146
REMARK   65  A    between atoms: _145  and  _148
REMARK   66  A    between atoms: _148  and  _149
REMARK   67  A    between atoms: _152  and  _154
REMARK   68  A    between atoms: _154  and  _155
REMARK   69  A    between atoms: _154  and  _157
REMARK   70  A    between atoms: _157  and  _158
REMARK   71  A    between atoms: _161  and  _163
REMARK   72  A    between atoms: _163  and  _164
REMARK   73  A    between atoms: _163  and  _166
REMARK   74  A    between atoms: _166  and  _167
REMARK   75  A    between atoms: _170  and  _172
REMARK   76  A    between atoms: _172  and  _173
REMARK   77  A    between atoms: _172  and  _175
REMARK   78  A    between atoms: _175  and  _176
REMARK   79  A    between atoms: _179  and  _181
REMARK   80  A    between atoms: _181  and  _182
REMARK   81  A    between atoms: _181  and  _184
REMARK   82  A    between atoms: _184  and  _185
REMARK   83  A    between atoms: _188  and  _190
REMARK   84  A    between atoms: _190  and  _191
REMARK   85  A    between atoms: _190  and  _193
REMARK   86  A    between atoms: _193  and  _194
REMARK   87  A    between atoms: _194  and  _195
REMARK   88  A    between atoms: _200  and  _202
REMARK   89  A    between atoms: _202  and  _203
REMARK   90  A    between atoms: _202  and  _205
REMARK   91  A    between atoms: _205  and  _206
REMARK   92  A    between atoms: _211  and  _212
REMARK   93  A    between atoms: _214  and  _216
REMARK   94  A    between atoms: _216  and  _217
REMARK   95  A    between atoms: _216  and  _219
REMARK   96  A    between atoms: _219  and  _220
REMARK   97  A    between atoms: _220  and  _221
REMARK   98  A    between atoms: _223  and  _225
REMARK   99  A    between atoms: _225  and  _226
REMARK  100  A    between atoms: _225  and  _228
REMARK  101  A    between atoms: _228  and  _229
REMARK  102  A    between atoms: _229  and  _230
REMARK  103  A    between atoms: _230  and  _231
REMARK  104  A    between atoms: _240  and  _242
REMARK  105  A    between atoms: _242  and  _243
REMARK  106  A    between atoms: _242  and  _245
REMARK  107  A    between atoms: _245  and  _246
REMARK  108  A    between atoms: _249  and  _251
REMARK  109  A    between atoms: _251  and  _252
REMARK  110  A    between atoms: _254  and  _256
REMARK  111  A    between atoms: _256  and  _257
REMARK  112  A    between atoms: _256  and  _259
REMARK  113  A    between atoms: _259  and  _260
REMARK  114  A    between atoms: _260  and  _261
REMARK  115  A    between atoms: _264  and  _266
REMARK  116  A    between atoms: _266  and  _267
REMARK  117  A    between atoms: _269  and  _271
REMARK  118  A    between atoms: _271  and  _272
REMARK  119  A    between atoms: _271  and  _274
REMARK  120  A    between atoms: _274  and  _275
REMARK  121  A    between atoms: _281  and  _283
REMARK  122  A    between atoms: _283  and  _284
REMARK  123  A    between atoms: _283  and  _286
REMARK  124  A    between atoms: _286  and  _287
REMARK  125  A    between atoms: _287  and  _288
REMARK  126  A    between atoms: _288  and  _289
REMARK  127  A    between atoms: _289  and  _290
REMARK                            x       y       z     vdW  Elec       q    Type
REMARK                         _______ _______ _______ _____ _____    ______ ____
ROOT
ATOM      1  CG  LYS A   1      15.254  22.583   4.257  0.00  0.00    -0.000 C 
ENDROOT
BRANCH   1   2
ATOM      2  CB  LYS A   1      14.524  23.878   3.975  0.00  0.00    +0.025 C 
BRANCH   2   3
ATOM      3  CA  LYS A   1      13.930  24.559   5.206  0.00  0.00    +0.133 C 
BRANCH   3   4
ATOM      4  N   LYS A   1      12.912  23.709   5.813  0.00  0.00    -0.239 NA
ATOM      5  H   LYS A   1      12.412  23.016   5.221  0.00  0.00    +0.142 HD
ENDBRANCH   3   4
BRANCH   3   6
ATOM      6  C   LYS A   1      13.359  25.908   4.786  0.00  0.00    +0.224 C 
ATOM      7  O   LYS A   1      14.107  26.816   4.426  0.00  0.00    -0.287 OA
ENDBRANCH   3   6
ENDBRANCH   2   3
ENDBRANCH   1   2
BRANCH   1   8
ATOM      8  CD  LYS A   1      16.606  22.832   4.881  0.00  0.00    -0.024 C 
BRANCH   8   9
ATOM      9  CE  LYS A   1      17.519  21.627   4.704  0.00  0.00    -0.086 C 
BRANCH   9  10
ATOM     10  NZ  LYS A   1      18.892  21.898   5.214  0.00  0.00    +0.380 N 
ATOM     11  HZ1 LYS A   1      18.845  22.128   6.227  0.00  0.00    -0.089 HD
ATOM     12  HZ2 LYS A   1      19.484  21.054   5.076  0.00  0.00    -0.089 HD
ATOM     13  HZ3 LYS A   1      19.302  22.700   4.694  0.00  0.00    -0.089 HD
ENDBRANCH   9  10
ENDBRANCH   8   9
ENDBRANCH   1   8
TORSDOF 7
REMARK  Name = ../refined-set-2016/4dst/4dst_pocket.pdb
REMARK  127 active torsions:
REMARK  status: ('A' for Active; 'I' for Inactive)
REMARK    1  A    between atoms: _1  and  _3
REMARK    2  A    between atoms: _3  and  _4
REMARK    3  A    between atoms: _3  and  _6
REMARK    4  A    between atoms: _6  and  _7
REMARK    5  A    between atoms: _7  and  _8
REMARK    6  A    between atoms: _11  and  _13
REMARK    7  A    between atoms: _13  and  _14
REMARK    8  A    between atoms: _13  and  _16
REMARK    9  A    between atoms: _16  and  _17
REMARK   10  A    between atoms: _22  and  _23
REMARK   11  A    between atoms: _25  and  _27
REMARK   12  A    between atoms: _27  and  _28
REMARK   13  A    between atoms: _27  and  _30
REMARK   14  A    between atoms: _30  and  _31
REMARK   15  A    between atoms: _31  and  _32
REMARK   16  A    between atoms: _32  and  _33
REMARK   17  A    between atoms: _33  and  _34
REMARK   18  A    between atoms: _38  and  _40
REMARK   19  A    between atoms: _40  and  _41
REMARK   20  A    between atoms: _40  and  _43
REMARK   21  A    between atoms: _43  and  _44
REMARK   22  A    between atoms: _47  and  _49
REMARK   23  A    between atoms: _49  and  _50
REMARK   24  A    between atoms: _49  and  _52
REMARK   25  A    between atoms: _55  and  _57
REMARK   26  A    between atoms: _57  and  _58
REMARK   27  A    between atoms: _57  and  _60
REMARK   28  A    between atoms: _63  and  _65
REMARK   29  A    between atoms: _65  and  _66
REMARK   30  A    between atoms: _65  and  _68
REMARK   31  A    between atoms: _68  and  _69
REMARK   32  A    between atoms: _69  and  _70
REMARK   33  A    between atoms: _73  and  _75
REMARK   34  A    between atoms: _75  and  _76
REMARK   35  A    between atoms: _75  and  _78
REMARK   36  A    between atoms: _78  and  _79
REMARK   37  A    between atoms: _82  and  _84
REMARK   38  A    between atoms: _84  and  _85
REMARK   39  A    between atoms: _84  and  _87
REMARK   40  A    between atoms: _87  and  _88
REMARK   41  A    between atoms: _90  and  _92
REMARK   42  A    between atoms: _92  and  _93
REMARK   43  A    between atoms: _92  and  _95
REMARK   44  A    between atoms: _95  and  _96
REMARK   45  A    between atoms: _101  and  _102
REMARK   46  A    between atoms: _104  and  _106
REMARK   47  A    between atoms: _106  and  _107
REMARK   48  A    between atoms: _106  and  _109
REMARK   49  A    between atoms: _109  and  _110
REMARK   50  A    between atoms: _110  and  _111
REMARK   51  A    between atoms: _111  and  _112
REMARK   52  A    between atoms: _121  and  _123
REMARK   53  A    between atoms: _123  and  _124
REMARK   54  A    between atoms: _123  and  _126
REMARK   55  A    between atoms: _126  and  _127
REMARK   56  A    between atoms: _127  and  _128
REMARK   57  A    between atoms: _128  and  _129
REMARK   58  A    between atoms: _129  and  _130
REMARK   59  A    between atoms: _134  and  _136
REMARK   60  A    between atoms: _136  and  _137
REMARK   61  A    between atoms: _136  and  _139
REMARK   62  A    between atoms: _139  and  _140
REMARK   63  A    between atoms: _143  and  _145
REMARK   64  A    between atoms: _145  and  _146
REMARK   65  A    between atoms: _145  and  _148
REMARK   66  A    between atoms: _148  and  _149
REMARK   67  A    between atoms: _152  and  _154
REMARK   68  A    between atoms: _154  and  _155
REMARK   69  A    between atoms: _154  and  _157
REMARK   70  A    between atoms: _157  and  _158
REMARK   71  A    between atoms: _161  and  _163
REMARK   72  A    between atoms: _163  and  _164
REMARK   73  A    between atoms: _163  and  _166
REMARK   74  A    between atoms: _166  and  _167
REMARK   75  A    between atoms: _170  and  _172
REMARK   76  A    between atoms: _172  and  _173
REMARK   77  A    between atoms: _172  and  _175
REMARK   78  A    between atoms: _175  and  _176
REMARK   79  A    between atoms: _179  and  _181
REMARK   80  A    between atoms: _181  and  _182
REMARK   81  A    between atoms: _181  and  _184
REMARK   82  A    between atoms: _184  and  _185
REMARK   83  A    between atoms: _188  and  _190
REMARK   84  A    between atoms: _190  and  _191
REMARK   85  A    between atoms: _190  and  _193
REMARK   86  A    between atoms: _193  and  _194
REMARK   87  A    between atoms: _194  and  _195
REMARK   88  A    between atoms: _200  and  _202
REMARK   89  A    between atoms: _202  and  _203
REMARK   90  A    between atoms: _202  and  _205
REMARK   91  A    between atoms: _205  and  _206
REMARK   92  A    between atoms: _211  and  _212
REMARK   93  A    between atoms: _214  and  _216
REMARK   94  A    between atoms: _216  and  _217
REMARK   95  A    between atoms: _216  and  _219
REMARK   96  A    between atoms: _219  and  _220
REMARK   97  A    between atoms: _220  and  _221
REMARK   98  A    between atoms: _223  and  _225
REMARK   99  A    between atoms: _225  and  _226
REMARK  100  A    between atoms: _225  and  _228
REMARK  101  A    between atoms: _228  and  _229
REMARK  102  A    between atoms: _229  and  _230
REMARK  103  A    between atoms: _230  and  _231
REMARK  104  A    between atoms: _240  and  _242
REMARK  105  A    between atoms: _242  and  _243
REMARK  106  A    between atoms: _242  and  _245
REMARK  107  A    between atoms: _245  and  _246
REMARK  108  A    between atoms: _249  and  _251
REMARK  109  A    between atoms: _251  and  _252
REMARK  110  A    between atoms: _254  and  _256
REMARK  111  A    between atoms: _256  and  _257
REMARK  112  A    between atoms: _256  and  _259
REMARK  113  A    between atoms: _259  and  _260
REMARK  114  A    between atoms: _260  and  _261
REMARK  115  A    between atoms: _264  and  _266
REMARK  116  A    between atoms: _266  and  _267
REMARK  117  A    between atoms: _269  and  _271
REMARK  118  A    between atoms: _271  and  _272
REMARK  119  A    between atoms: _271  and  _274
REMARK  120  A    between atoms: _274  and  _275
REMARK  121  A    between atoms: _281  and  _283
REMARK  122  A    between atoms: _283  and  _284
REMARK  123  A    between atoms: _283  and  _286
REMARK  124  A    between atoms: _286  and  _287
REMARK  125  A    between atoms: _287  and  _288
REMARK  126  A    between atoms: _288  and  _289
REMARK  127  A    between atoms: _289  and  _290
REMARK                            x       y       z     vdW  Elec       q    Type
REMARK                         _______ _______ _______ _____ _____    ______ ____
ROOT
ATOM      1  O   HOH     1      20.799  15.187  18.764  0.00  0.00    +0.000 OA
ENDROOT
TORSDOF 0
REMARK  Name = ../refined-set-2016/4dst/4dst_pocket.pdb
REMARK  127 active torsions:
REMARK  status: ('A' for Active; 'I' for Inactive)
REMARK    1  A    between atoms: _1  and  _3
REMARK    2  A    between atoms: _3  and  _4
REMARK    3  A    between atoms: _3  and  _6
REMARK    4  A    between atoms: _6  and  _7
REMARK    5  A    between atoms: _7  and  _8
REMARK    6  A    between atoms: _11  and  _13
REMARK    7  A    between atoms: _13  and  _14
REMARK    8  A    between atoms: _13  and  _16
REMARK    9  A    between atoms: _16  and  _17
REMARK   10  A    between atoms: _22  and  _23
REMARK   11  A    between atoms: _25  and  _27
REMARK   12  A    between atoms: _27  and  _28
REMARK   13  A    between atoms: _27  and  _30
REMARK   14  A    between atoms: _30  and  _31
REMARK   15  A    between atoms: _31  and  _32
REMARK   16  A    between atoms: _32  and  _33
REMARK   17  A    between atoms: _33  and  _34
REMARK   18  A    between atoms: _38  and  _40
REMARK   19  A    between atoms: _40  and  _41
REMARK   20  A    between atoms: _40  and  _43
REMARK   21  A    between atoms: _43  and  _44
REMARK   22  A    between atoms: _47  and  _49
REMARK   23  A    between atoms: _49  and  _50
REMARK   24  A    between atoms: _49  and  _52
REMARK   25  A    between atoms: _55  and  _57
REMARK   26  A    between atoms: _57  and  _58
REMARK   27  A    between atoms: _57  and  _60
REMARK   28  A    between atoms: _63  and  _65
REMARK   29  A    between atoms: _65  and  _66
REMARK   30  A    between atoms: _65  and  _68
REMARK   31  A    between atoms: _68  and  _69
REMARK   32  A    between atoms: _69  and  _70
REMARK   33  A    between atoms: _73  and  _75
REMARK   34  A    between atoms: _75  and  _76
REMARK   35  A    between atoms: _75  and  _78
REMARK   36  A    between atoms: _78  and  _79
REMARK   37  A    between atoms: _82  and  _84
REMARK   38  A    between atoms: _84  and  _85
REMARK   39  A    between atoms: _84  and  _87
REMARK   40  A    between atoms: _87  and  _88
REMARK   41  A    between atoms: _90  and  _92
REMARK   42  A    between atoms: _92  and  _93
REMARK   43  A    between atoms: _92  and  _95
REMARK   44  A    between atoms: _95  and  _96
REMARK   45  A    between atoms: _101  and  _102
REMARK   46  A    between atoms: _104  and  _106
REMARK   47  A    between atoms: _106  and  _107
REMARK   48  A    between atoms: _106  and  _109
REMARK   49  A    between atoms: _109  and  _110
REMARK   50  A    between atoms: _110  and  _111
REMARK   51  A    between atoms: _111  and  _112
REMARK   52  A    between atoms: _121  and  _123
REMARK   53  A    between atoms: _123  and  _124
REMARK   54  A    between atoms: _123  and  _126
REMARK   55  A    between atoms: _126  and  _127
REMARK   56  A    between atoms: _127  and  _128
REMARK   57  A    between atoms: _128  and  _129
REMARK   58  A    between atoms: _129  and  _130
REMARK   59  A    between atoms: _134  and  _136
REMARK   60  A    between atoms: _136  and  _137
REMARK   61  A    between atoms: _136  and  _139
REMARK   62  A    between atoms: _139  and  _140
REMARK   63  A    between atoms: _143  and  _145
REMARK   64  A    between atoms: _145  and  _146
REMARK   65  A    between atoms: _145  and  _148
REMARK   66  A    between atoms: _148  and  _149
REMARK   67  A    between atoms: _152  and  _154
REMARK   68  A    between atoms: _154  and  _155
REMARK   69  A    between atoms: _154  and  _157
REMARK   70  A    between atoms: _157  and  _158
REMARK   71  A    between atoms: _161  and  _163
REMARK   72  A    between atoms: _163  and  _164
REMARK   73  A    between atoms: _163  and  _166
REMARK   74  A    between atoms: _166  and  _167
REMARK   75  A    between atoms: _170  and  _172
REMARK   76  A    between atoms: _172  and  _173
REMARK   77  A    between atoms: _172  and  _175
REMARK   78  A    between atoms: _175  and  _176
REMARK   79  A    between atoms: _179  and  _181
REMARK   80  A    between atoms: _181  and  _182
REMARK   81  A    between atoms: _181  and  _184
REMARK   82  A    between atoms: _184  and  _185
REMARK   83  A    between atoms: _188  and  _190
REMARK   84  A    between atoms: _190  and  _191
REMARK   85  A    between atoms: _190  and  _193
REMARK   86  A    between atoms: _193  and  _194
REMARK   87  A    between atoms: _194  and  _195
REMARK   88  A    between atoms: _200  and  _202
REMARK   89  A    between atoms: _202  and  _203
REMARK   90  A    between atoms: _202  and  _205
REMARK   91  A    between atoms: _205  and  _206
REMARK   92  A    between atoms: _211  and  _212
REMARK   93  A    between atoms: _214  and  _216
REMARK   94  A    between atoms: _216  and  _217
REMARK   95  A    between atoms: _216  and  _219
REMARK   96  A    between atoms: _219  and  _220
REMARK   97  A    between atoms: _220  and  _221
REMARK   98  A    between atoms: _223  and  _225
REMARK   99  A    between atoms: _225  and  _226
REMARK  100  A    between atoms: _225  and  _228
REMARK  101  A    between atoms: _228  and  _229
REMARK  102  A    between atoms: _229  and  _230
REMARK  103  A    between atoms: _230  and  _231
REMARK  104  A    between atoms: _240  and  _242
REMARK  105  A    between atoms: _242  and  _243
REMARK  106  A    between atoms: _242  and  _245
REMARK  107  A    between atoms: _245  and  _246
REMARK  108  A    between atoms: _249  and  _251
REMARK  109  A    between atoms: _251  and  _252
REMARK  110  A    between atoms: _254  and  _256
REMARK  111  A    between atoms: _256  and  _257
REMARK  112  A    between atoms: _256  and  _259
REMARK  113  A    between atoms: _259  and  _260
REMARK  114  A    between atoms: _260  and  _261
REMARK  115  A    between atoms: _264  and  _266
REMARK  116  A    between atoms: _266  and  _267
REMARK  117  A    between atoms: _269  and  _271
REMARK  118  A    between atoms: _271  and  _272
REMARK  119  A    between atoms: _271  and  _274
REMARK  120  A    between atoms: _274  and  _275
REMARK  121  A    between atoms: _281  and  _283
REMARK  122  A    between atoms: _283  and  _284
REMARK  123  A    between atoms: _283  and  _286
REMARK  124  A    between atoms: _286  and  _287
REMARK  125  A    between atoms: _287  and  _288
REMARK  126  A    between atoms: _288  and  _289
REMARK  127  A    between atoms: _289  and  _290
REMARK                            x       y       z     vdW  Elec       q    Type
REMARK                         _______ _______ _______ _____ _____    ______ ____
ROOT
ATOM      1  O   HOH     1      24.203   9.462  15.252  0.00  0.00    +0.000 OA
ENDROOT
TORSDOF 0
REMARK  Name = ../refined-set-2016/4dst/4dst_pocket.pdb
REMARK  127 active torsions:
REMARK  status: ('A' for Active; 'I' for Inactive)
REMARK    1  A    between atoms: _1  and  _3
REMARK    2  A    between atoms: _3  and  _4
REMARK    3  A    between atoms: _3  and  _6
REMARK    4  A    between atoms: _6  and  _7
REMARK    5  A    between atoms: _7  and  _8
REMARK    6  A    between atoms: _11  and  _13
REMARK    7  A    between atoms: _13  and  _14
REMARK    8  A    between atoms: _13  and  _16
REMARK    9  A    between atoms: _16  and  _17
REMARK   10  A    between atoms: _22  and  _23
REMARK   11  A    between atoms: _25  and  _27
REMARK   12  A    between atoms: _27  and  _28
REMARK   13  A    between atoms: _27  and  _30
REMARK   14  A    between atoms: _30  and  _31
REMARK   15  A    between atoms: _31  and  _32
REMARK   16  A    between atoms: _32  and  _33
REMARK   17  A    between atoms: _33  and  _34
REMARK   18  A    between atoms: _38  and  _40
REMARK   19  A    between atoms: _40  and  _41
REMARK   20  A    between atoms: _40  and  _43
REMARK   21  A    between atoms: _43  and  _44
REMARK   22  A    between atoms: _47  and  _49
REMARK   23  A    between atoms: _49  and  _50
REMARK   24  A    between atoms: _49  and  _52
REMARK   25  A    between atoms: _55  and  _57
REMARK   26  A    between atoms: _57  and  _58
REMARK   27  A    between atoms: _57  and  _60
REMARK   28  A    between atoms: _63  and  _65
REMARK   29  A    between atoms: _65  and  _66
REMARK   30  A    between atoms: _65  and  _68
REMARK   31  A    between atoms: _68  and  _69
REMARK   32  A    between atoms: _69  and  _70
REMARK   33  A    between atoms: _73  and  _75
REMARK   34  A    between atoms: _75  and  _76
REMARK   35  A    between atoms: _75  and  _78
REMARK   36  A    between atoms: _78  and  _79
REMARK   37  A    between atoms: _82  and  _84
REMARK   38  A    between atoms: _84  and  _85
REMARK   39  A    between atoms: _84  and  _87
REMARK   40  A    between atoms: _87  and  _88
REMARK   41  A    between atoms: _90  and  _92
REMARK   42  A    between atoms: _92  and  _93
REMARK   43  A    between atoms: _92  and  _95
REMARK   44  A    between atoms: _95  and  _96
REMARK   45  A    between atoms: _101  and  _102
REMARK   46  A    between atoms: _104  and  _106
REMARK   47  A    between atoms: _106  and  _107
REMARK   48  A    between atoms: _106  and  _109
REMARK   49  A    between atoms: _109  and  _110
REMARK   50  A    between atoms: _110  and  _111
REMARK   51  A    between atoms: _111  and  _112
REMARK   52  A    between atoms: _121  and  _123
REMARK   53  A    between atoms: _123  and  _124
REMARK   54  A    between atoms: _123  and  _126
REMARK   55  A    between atoms: _126  and  _127
REMARK   56  A    between atoms: _127  and  _128
REMARK   57  A    between atoms: _128  and  _129
REMARK   58  A    between atoms: _129  and  _130
REMARK   59  A    between atoms: _134  and  _136
REMARK   60  A    between atoms: _136  and  _137
REMARK   61  A    between atoms: _136  and  _139
REMARK   62  A    between atoms: _139  and  _140
REMARK   63  A    between atoms: _143  and  _145
REMARK   64  A    between atoms: _145  and  _146
REMARK   65  A    between atoms: _145  and  _148
REMARK   66  A    between atoms: _148  and  _149
REMARK   67  A    between atoms: _152  and  _154
REMARK   68  A    between atoms: _154  and  _155
REMARK   69  A    between atoms: _154  and  _157
REMARK   70  A    between atoms: _157  and  _158
REMARK   71  A    between atoms: _161  and  _163
REMARK   72  A    between atoms: _163  and  _164
REMARK   73  A    between atoms: _163  and  _166
REMARK   74  A    between atoms: _166  and  _167
REMARK   75  A    between atoms: _170  and  _172
REMARK   76  A    between atoms: _172  and  _173
REMARK   77  A    between atoms: _172  and  _175
REMARK   78  A    between atoms: _175  and  _176
REMARK   79  A    between atoms: _179  and  _181
REMARK   80  A    between atoms: _181  and  _182
REMARK   81  A    between atoms: _181  and  _184
REMARK   82  A    between atoms: _184  and  _185
REMARK   83  A    between atoms: _188  and  _190
REMARK   84  A    between atoms: _190  and  _191
REMARK   85  A    between atoms: _190  and  _193
REMARK   86  A    between atoms: _193  and  _194
REMARK   87  A    between atoms: _194  and  _195
REMARK   88  A    between atoms: _200  and  _202
REMARK   89  A    between atoms: _202  and  _203
REMARK   90  A    between atoms: _202  and  _205
REMARK   91  A    between atoms: _205  and  _206
REMARK   92  A    between atoms: _211  and  _212
REMARK   93  A    between atoms: _214  and  _216
REMARK   94  A    between atoms: _216  and  _217
REMARK   95  A    between atoms: _216  and  _219
REMARK   96  A    between atoms: _219  and  _220
REMARK   97  A    between atoms: _220  and  _221
REMARK   98  A    between atoms: _223  and  _225
REMARK   99  A    between atoms: _225  and  _226
REMARK  100  A    between atoms: _225  and  _228
REMARK  101  A    between atoms: _228  and  _229
REMARK  102  A    between atoms: _229  and  _230
REMARK  103  A    between atoms: _230  and  _231
REMARK  104  A    between atoms: _240  and  _242
REMARK  105  A    between atoms: _242  and  _243
REMARK  106  A    between atoms: _242  and  _245
REMARK  107  A    between atoms: _245  and  _246
REMARK  108  A    between atoms: _249  and  _251
REMARK  109  A    between atoms: _251  and  _252
REMARK  110  A    between atoms: _254  and  _256
REMARK  111  A    between atoms: _256  and  _257
REMARK  112  A    between atoms: _256  and  _259
REMARK  113  A    between atoms: _259  and  _260
REMARK  114  A    between atoms: _260  and  _261
REMARK  115  A    between atoms: _264  and  _266
REMARK  116  A    between atoms: _266  and  _267
REMARK  117  A    between atoms: _269  and  _271
REMARK  118  A    between atoms: _271  and  _272
REMARK  119  A    between atoms: _271  and  _274
REMARK  120  A    between atoms: _274  and  _275
REMARK  121  A    between atoms: _281  and  _283
REMARK  122  A    between atoms: _283  and  _284
REMARK  123  A    between atoms: _283  and  _286
REMARK  124  A    between atoms: _286  and  _287
REMARK  125  A    between atoms: _287  and  _288
REMARK  126  A    between atoms: _288  and  _289
REMARK  127  A    between atoms: _289  and  _290
REMARK                            x       y       z     vdW  Elec       q    Type
REMARK                         _______ _______ _______ _____ _____    ______ ____
ROOT
ATOM      1  O   HOH     1      19.863  17.591  20.126  0.00  0.00    +0.000 OA
ENDROOT
TORSDOF 0
REMARK  Name = ../refined-set-2016/4dst/4dst_pocket.pdb
REMARK  127 active torsions:
REMARK  status: ('A' for Active; 'I' for Inactive)
REMARK    1  A    between atoms: _1  and  _3
REMARK    2  A    between atoms: _3  and  _4
REMARK    3  A    between atoms: _3  and  _6
REMARK    4  A    between atoms: _6  and  _7
REMARK    5  A    between atoms: _7  and  _8
REMARK    6  A    between atoms: _11  and  _13
REMARK    7  A    between atoms: _13  and  _14
REMARK    8  A    between atoms: _13  and  _16
REMARK    9  A    between atoms: _16  and  _17
REMARK   10  A    between atoms: _22  and  _23
REMARK   11  A    between atoms: _25  and  _27
REMARK   12  A    between atoms: _27  and  _28
REMARK   13  A    between atoms: _27  and  _30
REMARK   14  A    between atoms: _30  and  _31
REMARK   15  A    between atoms: _31  and  _32
REMARK   16  A    between atoms: _32  and  _33
REMARK   17  A    between atoms: _33  and  _34
REMARK   18  A    between atoms: _38  and  _40
REMARK   19  A    between atoms: _40  and  _41
REMARK   20  A    between atoms: _40  and  _43
REMARK   21  A    between atoms: _43  and  _44
REMARK   22  A    between atoms: _47  and  _49
REMARK   23  A    between atoms: _49  and  _50
REMARK   24  A    between atoms: _49  and  _52
REMARK   25  A    between atoms: _55  and  _57
REMARK   26  A    between atoms: _57  and  _58
REMARK   27  A    between atoms: _57  and  _60
REMARK   28  A    between atoms: _63  and  _65
REMARK   29  A    between atoms: _65  and  _66
REMARK   30  A    between atoms: _65  and  _68
REMARK   31  A    between atoms: _68  and  _69
REMARK   32  A    between atoms: _69  and  _70
REMARK   33  A    between atoms: _73  and  _75
REMARK   34  A    between atoms: _75  and  _76
REMARK   35  A    between atoms: _75  and  _78
REMARK   36  A    between atoms: _78  and  _79
REMARK   37  A    between atoms: _82  and  _84
REMARK   38  A    between atoms: _84  and  _85
REMARK   39  A    between atoms: _84  and  _87
REMARK   40  A    between atoms: _87  and  _88
REMARK   41  A    between atoms: _90  and  _92
REMARK   42  A    between atoms: _92  and  _93
REMARK   43  A    between atoms: _92  and  _95
REMARK   44  A    between atoms: _95  and  _96
REMARK   45  A    between atoms: _101  and  _102
REMARK   46  A    between atoms: _104  and  _106
REMARK   47  A    between atoms: _106  and  _107
REMARK   48  A    between atoms: _106  and  _109
REMARK   49  A    between atoms: _109  and  _110
REMARK   50  A    between atoms: _110  and  _111
REMARK   51  A    between atoms: _111  and  _112
REMARK   52  A    between atoms: _121  and  _123
REMARK   53  A    between atoms: _123  and  _124
REMARK   54  A    between atoms: _123  and  _126
REMARK   55  A    between atoms: _126  and  _127
REMARK   56  A    between atoms: _127  and  _128
REMARK   57  A    between atoms: _128  and  _129
REMARK   58  A    between atoms: _129  and  _130
REMARK   59  A    between atoms: _134  and  _136
REMARK   60  A    between atoms: _136  and  _137
REMARK   61  A    between atoms: _136  and  _139
REMARK   62  A    between atoms: _139  and  _140
REMARK   63  A    between atoms: _143  and  _145
REMARK   64  A    between atoms: _145  and  _146
REMARK   65  A    between atoms: _145  and  _148
REMARK   66  A    between atoms: _148  and  _149
REMARK   67  A    between atoms: _152  and  _154
REMARK   68  A    between atoms: _154  and  _155
REMARK   69  A    between atoms: _154  and  _157
REMARK   70  A    between atoms: _157  and  _158
REMARK   71  A    between atoms: _161  and  _163
REMARK   72  A    between atoms: _163  and  _164
REMARK   73  A    between atoms: _163  and  _166
REMARK   74  A    between atoms: _166  and  _167
REMARK   75  A    between atoms: _170  and  _172
REMARK   76  A    between atoms: _172  and  _173
REMARK   77  A    between atoms: _172  and  _175
REMARK   78  A    between atoms: _175  and  _176
REMARK   79  A    between atoms: _179  and  _181
REMARK   80  A    between atoms: _181  and  _182
REMARK   81  A    between atoms: _181  and  _184
REMARK   82  A    between atoms: _184  and  _185
REMARK   83  A    between atoms: _188  and  _190
REMARK   84  A    between atoms: _190  and  _191
REMARK   85  A    between atoms: _190  and  _193
REMARK   86  A    between atoms: _193  and  _194
REMARK   87  A    between atoms: _194  and  _195
REMARK   88  A    between atoms: _200  and  _202
REMARK   89  A    between atoms: _202  and  _203
REMARK   90  A    between atoms: _202  and  _205
REMARK   91  A    between atoms: _205  and  _206
REMARK   92  A    between atoms: _211  and  _212
REMARK   93  A    between atoms: _214  and  _216
REMARK   94  A    between atoms: _216  and  _217
REMARK   95  A    between atoms: _216  and  _219
REMARK   96  A    between atoms: _219  and  _220
REMARK   97  A    between atoms: _220  and  _221
REMARK   98  A    between atoms: _223  and  _225
REMARK   99  A    between atoms: _225  and  _226
REMARK  100  A    between atoms: _225  and  _228
REMARK  101  A    between atoms: _228  and  _229
REMARK  102  A    between atoms: _229  and  _230
REMARK  103  A    between atoms: _230  and  _231
REMARK  104  A    between atoms: _240  and  _242
REMARK  105  A    between atoms: _242  and  _243
REMARK  106  A    between atoms: _242  and  _245
REMARK  107  A    between atoms: _245  and  _246
REMARK  108  A    between atoms: _249  and  _251
REMARK  109  A    between atoms: _251  and  _252
REMARK  110  A    between atoms: _254  and  _256
REMARK  111  A    between atoms: _256  and  _257
REMARK  112  A    between atoms: _256  and  _259
REMARK  113  A    between atoms: _259  and  _260
REMARK  114  A    between atoms: _260  and  _261
REMARK  115  A    between atoms: _264  and  _266
REMARK  116  A    between atoms: _266  and  _267
REMARK  117  A    between atoms: _269  and  _271
REMARK  118  A    between atoms: _271  and  _272
REMARK  119  A    between atoms: _271  and  _274
REMARK  120  A    between atoms: _274  and  _275
REMARK  121  A    between atoms: _281  and  _283
REMARK  122  A    between atoms: _283  and  _284
REMARK  123  A    between atoms: _283  and  _286
REMARK  124  A    between atoms: _286  and  _287
REMARK  125  A    between atoms: _287  and  _288
REMARK  126  A    between atoms: _288  and  _289
REMARK  127  A    between atoms: _289  and  _290
REMARK                            x       y       z     vdW  Elec       q    Type
REMARK                         _______ _______ _______ _____ _____    ______ ____
ROOT
ATOM      1  O   HOH     1      19.846  10.623  18.315  0.00  0.00    +0.000 OA
ENDROOT
TORSDOF 0
REMARK  Name = ../refined-set-2016/4dst/4dst_pocket.pdb
REMARK  127 active torsions:
REMARK  status: ('A' for Active; 'I' for Inactive)
REMARK    1  A    between atoms: _1  and  _3
REMARK    2  A    between atoms: _3  and  _4
REMARK    3  A    between atoms: _3  and  _6
REMARK    4  A    between atoms: _6  and  _7
REMARK    5  A    between atoms: _7  and  _8
REMARK    6  A    between atoms: _11  and  _13
REMARK    7  A    between atoms: _13  and  _14
REMARK    8  A    between atoms: _13  and  _16
REMARK    9  A    between atoms: _16  and  _17
REMARK   10  A    between atoms: _22  and  _23
REMARK   11  A    between atoms: _25  and  _27
REMARK   12  A    between atoms: _27  and  _28
REMARK   13  A    between atoms: _27  and  _30
REMARK   14  A    between atoms: _30  and  _31
REMARK   15  A    between atoms: _31  and  _32
REMARK   16  A    between atoms: _32  and  _33
REMARK   17  A    between atoms: _33  and  _34
REMARK   18  A    between atoms: _38  and  _40
REMARK   19  A    between atoms: _40  and  _41
REMARK   20  A    between atoms: _40  and  _43
REMARK   21  A    between atoms: _43  and  _44
REMARK   22  A    between atoms: _47  and  _49
REMARK   23  A    between atoms: _49  and  _50
REMARK   24  A    between atoms: _49  and  _52
REMARK   25  A    between atoms: _55  and  _57
REMARK   26  A    between atoms: _57  and  _58
REMARK   27  A    between atoms: _57  and  _60
REMARK   28  A    between atoms: _63  and  _65
REMARK   29  A    between atoms: _65  and  _66
REMARK   30  A    between atoms: _65  and  _68
REMARK   31  A    between atoms: _68  and  _69
REMARK   32  A    between atoms: _69  and  _70
REMARK   33  A    between atoms: _73  and  _75
REMARK   34  A    between atoms: _75  and  _76
REMARK   35  A    between atoms: _75  and  _78
REMARK   36  A    between atoms: _78  and  _79
REMARK   37  A    between atoms: _82  and  _84
REMARK   38  A    between atoms: _84  and  _85
REMARK   39  A    between atoms: _84  and  _87
REMARK   40  A    between atoms: _87  and  _88
REMARK   41  A    between atoms: _90  and  _92
REMARK   42  A    between atoms: _92  and  _93
REMARK   43  A    between atoms: _92  and  _95
REMARK   44  A    between atoms: _95  and  _96
REMARK   45  A    between atoms: _101  and  _102
REMARK   46  A    between atoms: _104  and  _106
REMARK   47  A    between atoms: _106  and  _107
REMARK   48  A    between atoms: _106  and  _109
REMARK   49  A    between atoms: _109  and  _110
REMARK   50  A    between atoms: _110  and  _111
REMARK   51  A    between atoms: _111  and  _112
REMARK   52  A    between atoms: _121  and  _123
REMARK   53  A    between atoms: _123  and  _124
REMARK   54  A    between atoms: _123  and  _126
REMARK   55  A    between atoms: _126  and  _127
REMARK   56  A    between atoms: _127  and  _128
REMARK   57  A    between atoms: _128  and  _129
REMARK   58  A    between atoms: _129  and  _130
REMARK   59  A    between atoms: _134  and  _136
REMARK   60  A    between atoms: _136  and  _137
REMARK   61  A    between atoms: _136  and  _139
REMARK   62  A    between atoms: _139  and  _140
REMARK   63  A    between atoms: _143  and  _145
REMARK   64  A    between atoms: _145  and  _146
REMARK   65  A    between atoms: _145  and  _148
REMARK   66  A    between atoms: _148  and  _149
REMARK   67  A    between atoms: _152  and  _154
REMARK   68  A    between atoms: _154  and  _155
REMARK   69  A    between atoms: _154  and  _157
REMARK   70  A    between atoms: _157  and  _158
REMARK   71  A    between atoms: _161  and  _163
REMARK   72  A    between atoms: _163  and  _164
REMARK   73  A    between atoms: _163  and  _166
REMARK   74  A    between atoms: _166  and  _167
REMARK   75  A    between atoms: _170  and  _172
REMARK   76  A    between atoms: _172  and  _173
REMARK   77  A    between atoms: _172  and  _175
REMARK   78  A    between atoms: _175  and  _176
REMARK   79  A    between atoms: _179  and  _181
REMARK   80  A    between atoms: _181  and  _182
REMARK   81  A    between atoms: _181  and  _184
REMARK   82  A    between atoms: _184  and  _185
REMARK   83  A    between atoms: _188  and  _190
REMARK   84  A    between atoms: _190  and  _191
REMARK   85  A    between atoms: _190  and  _193
REMARK   86  A    between atoms: _193  and  _194
REMARK   87  A    between atoms: _194  and  _195
REMARK   88  A    between atoms: _200  and  _202
REMARK   89  A    between atoms: _202  and  _203
REMARK   90  A    between atoms: _202  and  _205
REMARK   91  A    between atoms: _205  and  _206
REMARK   92  A    between atoms: _211  and  _212
REMARK   93  A    between atoms: _214  and  _216
REMARK   94  A    between atoms: _216  and  _217
REMARK   95  A    between atoms: _216  and  _219
REMARK   96  A    between atoms: _219  and  _220
REMARK   97  A    between atoms: _220  and  _221
REMARK   98  A    between atoms: _223  and  _225
REMARK   99  A    between atoms: _225  and  _226
REMARK  100  A    between atoms: _225  and  _228
REMARK  101  A    between atoms: _228  and  _229
REMARK  102  A    between atoms: _229  and  _230
REMARK  103  A    between atoms: _230  and  _231
REMARK  104  A    between atoms: _240  and  _242
REMARK  105  A    between atoms: _242  and  _243
REMARK  106  A    between atoms: _242  and  _245
REMARK  107  A    between atoms: _245  and  _246
REMARK  108  A    between atoms: _249  and  _251
REMARK  109  A    between atoms: _251  and  _252
REMARK  110  A    between atoms: _254  and  _256
REMARK  111  A    between atoms: _256  and  _257
REMARK  112  A    between atoms: _256  and  _259
REMARK  113  A    between atoms: _259  and  _260
REMARK  114  A    between atoms: _260  and  _261
REMARK  115  A    between atoms: _264  and  _266
REMARK  116  A    between atoms: _266  and  _267
REMARK  117  A    between atoms: _269  and  _271
REMARK  118  A    between atoms: _271  and  _272
REMARK  119  A    between atoms: _271  and  _274
REMARK  120  A    between atoms: _274  and  _275
REMARK  121  A    between atoms: _281  and  _283
REMARK  122  A    between atoms: _283  and  _284
REMARK  123  A    between atoms: _283  and  _286
REMARK  124  A    between atoms: _286  and  _287
REMARK  125  A    between atoms: _287  and  _288
REMARK  126  A    between atoms: _288  and  _289
REMARK  127  A    between atoms: _289  and  _290
REMARK                            x       y       z     vdW  Elec       q    Type
REMARK                         _______ _______ _______ _____ _____    ______ ____
ROOT
ATOM      1  O   HOH     1      25.943  23.241   6.259  0.00  0.00    +0.000 OA
ENDROOT
TORSDOF 0
REMARK  Name = ../refined-set-2016/4dst/4dst_pocket.pdb
REMARK  127 active torsions:
REMARK  status: ('A' for Active; 'I' for Inactive)
REMARK    1  A    between atoms: _1  and  _3
REMARK    2  A    between atoms: _3  and  _4
REMARK    3  A    between atoms: _3  and  _6
REMARK    4  A    between atoms: _6  and  _7
REMARK    5  A    between atoms: _7  and  _8
REMARK    6  A    between atoms: _11  and  _13
REMARK    7  A    between atoms: _13  and  _14
REMARK    8  A    between atoms: _13  and  _16
REMARK    9  A    between atoms: _16  and  _17
REMARK   10  A    between atoms: _22  and  _23
REMARK   11  A    between atoms: _25  and  _27
REMARK   12  A    between atoms: _27  and  _28
REMARK   13  A    between atoms: _27  and  _30
REMARK   14  A    between atoms: _30  and  _31
REMARK   15  A    between atoms: _31  and  _32
REMARK   16  A    between atoms: _32  and  _33
REMARK   17  A    between atoms: _33  and  _34
REMARK   18  A    between atoms: _38  and  _40
REMARK   19  A    between atoms: _40  and  _41
REMARK   20  A    between atoms: _40  and  _43
REMARK   21  A    between atoms: _43  and  _44
REMARK   22  A    between atoms: _47  and  _49
REMARK   23  A    between atoms: _49  and  _50
REMARK   24  A    between atoms: _49  and  _52
REMARK   25  A    between atoms: _55  and  _57
REMARK   26  A    between atoms: _57  and  _58
REMARK   27  A    between atoms: _57  and  _60
REMARK   28  A    between atoms: _63  and  _65
REMARK   29  A    between atoms: _65  and  _66
REMARK   30  A    between atoms: _65  and  _68
REMARK   31  A    between atoms: _68  and  _69
REMARK   32  A    between atoms: _69  and  _70
REMARK   33  A    between atoms: _73  and  _75
REMARK   34  A    between atoms: _75  and  _76
REMARK   35  A    between atoms: _75  and  _78
REMARK   36  A    between atoms: _78  and  _79
REMARK   37  A    between atoms: _82  and  _84
REMARK   38  A    between atoms: _84  and  _85
REMARK   39  A    between atoms: _84  and  _87
REMARK   40  A    between atoms: _87  and  _88
REMARK   41  A    between atoms: _90  and  _92
REMARK   42  A    between atoms: _92  and  _93
REMARK   43  A    between atoms: _92  and  _95
REMARK   44  A    between atoms: _95  and  _96
REMARK   45  A    between atoms: _101  and  _102
REMARK   46  A    between atoms: _104  and  _106
REMARK   47  A    between atoms: _106  and  _107
REMARK   48  A    between atoms: _106  and  _109
REMARK   49  A    between atoms: _109  and  _110
REMARK   50  A    between atoms: _110  and  _111
REMARK   51  A    between atoms: _111  and  _112
REMARK   52  A    between atoms: _121  and  _123
REMARK   53  A    between atoms: _123  and  _124
REMARK   54  A    between atoms: _123  and  _126
REMARK   55  A    between atoms: _126  and  _127
REMARK   56  A    between atoms: _127  and  _128
REMARK   57  A    between atoms: _128  and  _129
REMARK   58  A    between atoms: _129  and  _130
REMARK   59  A    between atoms: _134  and  _136
REMARK   60  A    between atoms: _136  and  _137
REMARK   61  A    between atoms: _136  and  _139
REMARK   62  A    between atoms: _139  and  _140
REMARK   63  A    between atoms: _143  and  _145
REMARK   64  A    between atoms: _145  and  _146
REMARK   65  A    between atoms: _145  and  _148
REMARK   66  A    between atoms: _148  and  _149
REMARK   67  A    between atoms: _152  and  _154
REMARK   68  A    between atoms: _154  and  _155
REMARK   69  A    between atoms: _154  and  _157
REMARK   70  A    between atoms: _157  and  _158
REMARK   71  A    between atoms: _161  and  _163
REMARK   72  A    between atoms: _163  and  _164
REMARK   73  A    between atoms: _163  and  _166
REMARK   74  A    between atoms: _166  and  _167
REMARK   75  A    between atoms: _170  and  _172
REMARK   76  A    between atoms: _172  and  _173
REMARK   77  A    between atoms: _172  and  _175
REMARK   78  A    between atoms: _175  and  _176
REMARK   79  A    between atoms: _179  and  _181
REMARK   80  A    between atoms: _181  and  _182
REMARK   81  A    between atoms: _181  and  _184
REMARK   82  A    between atoms: _184  and  _185
REMARK   83  A    between atoms: _188  and  _190
REMARK   84  A    between atoms: _190  and  _191
REMARK   85  A    between atoms: _190  and  _193
REMARK   86  A    between atoms: _193  and  _194
REMARK   87  A    between atoms: _194  and  _195
REMARK   88  A    between atoms: _200  and  _202
REMARK   89  A    between atoms: _202  and  _203
REMARK   90  A    between atoms: _202  and  _205
REMARK   91  A    between atoms: _205  and  _206
REMARK   92  A    between atoms: _211  and  _212
REMARK   93  A    between atoms: _214  and  _216
REMARK   94  A    between atoms: _216  and  _217
REMARK   95  A    between atoms: _216  and  _219
REMARK   96  A    between atoms: _219  and  _220
REMARK   97  A    between atoms: _220  and  _221
REMARK   98  A    between atoms: _223  and  _225
REMARK   99  A    between atoms: _225  and  _226
REMARK  100  A    between atoms: _225  and  _228
REMARK  101  A    between atoms: _228  and  _229
REMARK  102  A    between atoms: _229  and  _230
REMARK  103  A    between atoms: _230  and  _231
REMARK  104  A    between atoms: _240  and  _242
REMARK  105  A    between atoms: _242  and  _243
REMARK  106  A    between atoms: _242  and  _245
REMARK  107  A    between atoms: _245  and  _246
REMARK  108  A    between atoms: _249  and  _251
REMARK  109  A    between atoms: _251  and  _252
REMARK  110  A    between atoms: _254  and  _256
REMARK  111  A    between atoms: _256  and  _257
REMARK  112  A    between atoms: _256  and  _259
REMARK  113  A    between atoms: _259  and  _260
REMARK  114  A    between atoms: _260  and  _261
REMARK  115  A    between atoms: _264  and  _266
REMARK  116  A    between atoms: _266  and  _267
REMARK  117  A    between atoms: _269  and  _271
REMARK  118  A    between atoms: _271  and  _272
REMARK  119  A    between atoms: _271  and  _274
REMARK  120  A    between atoms: _274  and  _275
REMARK  121  A    between atoms: _281  and  _283
REMARK  122  A    between atoms: _283  and  _284
REMARK  123  A    between atoms: _283  and  _286
REMARK  124  A    between atoms: _286  and  _287
REMARK  125  A    between atoms: _287  and  _288
REMARK  126  A    between atoms: _288  and  _289
REMARK  127  A    between atoms: _289  and  _290
REMARK                            x       y       z     vdW  Elec       q    Type
REMARK                         _______ _______ _______ _____ _____    ______ ____
ROOT
ATOM      1  O   HOH     1      21.851  17.219  13.696  0.00  0.00    +0.000 OA
ENDROOT
TORSDOF 0
