REMARK  Name = ../refined-set-2016/5aoi/5aoi_pocket.pdb
REMARK  101 active torsions:
REMARK  status: ('A' for Active; 'I' for Inactive)
REMARK    1  A    between atoms: _1  and  _3
REMARK    2  A    between atoms: _3  and  _4
REMARK    3  A    between atoms: _3  and  _6
REMARK    4  A    between atoms: _6  and  _7
REMARK    5  A    between atoms: _12  and  _13
REMARK    6  A    between atoms: _15  and  _17
REMARK    7  A    between atoms: _17  and  _18
REMARK    8  A    between atoms: _17  and  _20
REMARK    9  A    between atoms: _20  and  _21
REMARK   10  A    between atoms: _27  and  _29
REMARK   11  A    between atoms: _29  and  _30
REMARK   12  A    between atoms: _29  and  _32
REMARK   13  A    between atoms: _32  and  _33
REMARK   14  A    between atoms: _33  and  _34
REMARK   15  A    between atoms: _34  and  _35
REMARK   16  A    between atoms: _44  and  _46
REMARK   17  A    between atoms: _46  and  _47
REMARK   18  A    between atoms: _46  and  _49
REMARK   19  A    between atoms: _49  and  _50
REMARK   20  A    between atoms: _53  and  _55
REMARK   21  A    between atoms: _55  and  _56
REMARK   22  A    between atoms: _55  and  _58
REMARK   23  A    between atoms: _58  and  _59
REMARK   24  A    between atoms: _69  and  _71
REMARK   25  A    between atoms: _71  and  _72
REMARK   26  A    between atoms: _71  and  _74
REMARK   27  A    between atoms: _77  and  _79
REMARK   28  A    between atoms: _79  and  _80
REMARK   29  A    between atoms: _79  and  _82
REMARK   30  A    between atoms: _82  and  _83
REMARK   31  A    between atoms: _86  and  _88
REMARK   32  A    between atoms: _88  and  _89
REMARK   33  A    between atoms: _88  and  _91
REMARK   34  A    between atoms: _91  and  _92
REMARK   35  A    between atoms: _94  and  _96
REMARK   36  A    between atoms: _96  and  _97
REMARK   37  A    between atoms: _96  and  _99
REMARK   38  A    between atoms: _99  and  _100
REMARK   39  A    between atoms: _104  and  _105
REMARK   40  A    between atoms: _111  and  _112
REMARK   41  A    between atoms: _118  and  _119
REMARK   42  A    between atoms: _124  and  _126
REMARK   43  A    between atoms: _126  and  _127
REMARK   44  A    between atoms: _129  and  _131
REMARK   45  A    between atoms: _131  and  _132
REMARK   46  A    between atoms: _131  and  _134
REMARK   47  A    between atoms: _134  and  _135
REMARK   48  A    between atoms: _138  and  _140
REMARK   49  A    between atoms: _140  and  _141
REMARK   50  A    between atoms: _140  and  _143
REMARK   51  A    between atoms: _143  and  _144
REMARK   52  A    between atoms: _144  and  _145
REMARK   53  A    between atoms: _145  and  _146
REMARK   54  A    between atoms: _155  and  _157
REMARK   55  A    between atoms: _157  and  _158
REMARK   56  A    between atoms: _157  and  _160
REMARK   57  A    between atoms: _163  and  _165
REMARK   58  A    between atoms: _165  and  _166
REMARK   59  A    between atoms: _165  and  _168
REMARK   60  A    between atoms: _168  and  _169
REMARK   61  A    between atoms: _169  and  _170
REMARK   62  A    between atoms: _170  and  _171
REMARK   63  A    between atoms: _181  and  _182
REMARK   64  A    between atoms: _187  and  _189
REMARK   65  A    between atoms: _189  and  _190
REMARK   66  A    between atoms: _189  and  _192
REMARK   67  A    between atoms: _194  and  _196
REMARK   68  A    between atoms: _196  and  _197
REMARK   69  A    between atoms: _196  and  _199
REMARK   70  A    between atoms: _199  and  _200
REMARK   71  A    between atoms: _200  and  _201
REMARK   72  A    between atoms: _205  and  _206
REMARK   73  A    between atoms: _212  and  _213
REMARK   74  A    between atoms: _218  and  _220
REMARK   75  A    between atoms: _220  and  _221
REMARK   76  A    between atoms: _220  and  _223
REMARK   77  A    between atoms: _223  and  _224
REMARK   78  A    between atoms: _226  and  _228
REMARK   79  A    between atoms: _228  and  _229
REMARK   80  A    between atoms: _228  and  _231
REMARK   81  A    between atoms: _231  and  _232
REMARK   82  A    between atoms: _235  and  _237
REMARK   83  A    between atoms: _237  and  _238
REMARK   84  A    between atoms: _237  and  _240
REMARK   85  A    between atoms: _242  and  _244
REMARK   86  A    between atoms: _244  and  _245
REMARK   87  A    between atoms: _244  and  _247
REMARK   88  A    between atoms: _247  and  _248
REMARK   89  A    between atoms: _251  and  _253
REMARK   90  A    between atoms: _253  and  _254
REMARK   91  A    between atoms: _253  and  _256
REMARK   92  A    between atoms: _256  and  _257
REMARK   93  A    between atoms: _260  and  _262
REMARK   94  A    between atoms: _262  and  _263
REMARK   95  A    between atoms: _262  and  _265
REMARK   96  A    between atoms: _265  and  _266
REMARK   97  A    between atoms: _269  and  _271
REMARK   98  A    between atoms: _271  and  _272
REMARK   99  A    between atoms: _271  and  _274
REMARK  100  A    between atoms: _274  and  _275
REMARK  101  A    between atoms: _275  and  _276
REMARK                            x       y       z     vdW  Elec       q    Type
REMARK                         _______ _______ _______ _____ _____    ______ ____
ROOT
ATOM      1  CG  TYR A   1     132.159 103.718 -46.814  0.00  0.00    -0.020 A 
ATOM      2  CD2 TYR A   1     132.898 102.569 -47.071  0.00  0.00    -0.001 A 
ATOM      3  CE2 TYR A   1     132.989 102.047 -48.365  0.00  0.00    +0.036 A 
ATOM      4  CZ  TYR A   1     132.345 102.694 -49.403  0.00  0.00    +0.134 A 
ATOM      5  CE1 TYR A   1     131.616 103.834 -49.174  0.00  0.00    +0.036 A 
ATOM      6  CD1 TYR A   1     131.529 104.347 -47.875  0.00  0.00    -0.001 A 
ENDROOT
BRANCH   4   7
ATOM      7  OH  TYR A   1     132.424 102.197 -50.682  0.00  0.00    -0.506 OA
ATOM      8  HH  TYR A   1     131.908 102.780 -51.294  0.00  0.00    +0.292 HD
ENDBRANCH   4   7
BRANCH   1   9
ATOM      9  CB  TYR A   1     132.087 104.304 -45.425  0.00  0.00    +0.051 C 
BRANCH   9  10
ATOM     10  CA  TYR A   1     133.043 105.497 -45.297  0.00  0.00    +0.137 C 
BRANCH  10  11
ATOM     11  N   TYR A   1     134.414 105.080 -45.586  0.00  0.00    -0.239 NA
ATOM     12  H   TYR A   1     134.752 104.158 -45.244  0.00  0.00    +0.142 HD
ENDBRANCH  10  11
BRANCH  10  13
ATOM     13  C   TYR A   1     132.892 106.139 -43.921  0.00  0.00    +0.224 C 
ATOM     14  O   TYR A   1     131.786 106.496 -43.535  0.00  0.00    -0.287 OA
ENDBRANCH  10  13
ENDBRANCH   9  10
ENDBRANCH   1   9
TORSDOF 5
REMARK  Name = ../refined-set-2016/5aoi/5aoi_pocket.pdb
REMARK  101 active torsions:
REMARK  status: ('A' for Active; 'I' for Inactive)
REMARK    1  A    between atoms: _1  and  _3
REMARK    2  A    between atoms: _3  and  _4
REMARK    3  A    between atoms: _3  and  _6
REMARK    4  A    between atoms: _6  and  _7
REMARK    5  A    between atoms: _12  and  _13
REMARK    6  A    between atoms: _15  and  _17
REMARK    7  A    between atoms: _17  and  _18
REMARK    8  A    between atoms: _17  and  _20
REMARK    9  A    between atoms: _20  and  _21
REMARK   10  A    between atoms: _27  and  _29
REMARK   11  A    between atoms: _29  and  _30
REMARK   12  A    between atoms: _29  and  _32
REMARK   13  A    between atoms: _32  and  _33
REMARK   14  A    between atoms: _33  and  _34
REMARK   15  A    between atoms: _34  and  _35
REMARK   16  A    between atoms: _44  and  _46
REMARK   17  A    between atoms: _46  and  _47
REMARK   18  A    between atoms: _46  and  _49
REMARK   19  A    between atoms: _49  and  _50
REMARK   20  A    between atoms: _53  and  _55
REMARK   21  A    between atoms: _55  and  _56
REMARK   22  A    between atoms: _55  and  _58
REMARK   23  A    between atoms: _58  and  _59
REMARK   24  A    between atoms: _69  and  _71
REMARK   25  A    between atoms: _71  and  _72
REMARK   26  A    between atoms: _71  and  _74
REMARK   27  A    between atoms: _77  and  _79
REMARK   28  A    between atoms: _79  and  _80
REMARK   29  A    between atoms: _79  and  _82
REMARK   30  A    between atoms: _82  and  _83
REMARK   31  A    between atoms: _86  and  _88
REMARK   32  A    between atoms: _88  and  _89
REMARK   33  A    between atoms: _88  and  _91
REMARK   34  A    between atoms: _91  and  _92
REMARK   35  A    between atoms: _94  and  _96
REMARK   36  A    between atoms: _96  and  _97
REMARK   37  A    between atoms: _96  and  _99
REMARK   38  A    between atoms: _99  and  _100
REMARK   39  A    between atoms: _104  and  _105
REMARK   40  A    between atoms: _111  and  _112
REMARK   41  A    between atoms: _118  and  _119
REMARK   42  A    between atoms: _124  and  _126
REMARK   43  A    between atoms: _126  and  _127
REMARK   44  A    between atoms: _129  and  _131
REMARK   45  A    between atoms: _131  and  _132
REMARK   46  A    between atoms: _131  and  _134
REMARK   47  A    between atoms: _134  and  _135
REMARK   48  A    between atoms: _138  and  _140
REMARK   49  A    between atoms: _140  and  _141
REMARK   50  A    between atoms: _140  and  _143
REMARK   51  A    between atoms: _143  and  _144
REMARK   52  A    between atoms: _144  and  _145
REMARK   53  A    between atoms: _145  and  _146
REMARK   54  A    between atoms: _155  and  _157
REMARK   55  A    between atoms: _157  and  _158
REMARK   56  A    between atoms: _157  and  _160
REMARK   57  A    between atoms: _163  and  _165
REMARK   58  A    between atoms: _165  and  _166
REMARK   59  A    between atoms: _165  and  _168
REMARK   60  A    between atoms: _168  and  _169
REMARK   61  A    between atoms: _169  and  _170
REMARK   62  A    between atoms: _170  and  _171
REMARK   63  A    between atoms: _181  and  _182
REMARK   64  A    between atoms: _187  and  _189
REMARK   65  A    between atoms: _189  and  _190
REMARK   66  A    between atoms: _189  and  _192
REMARK   67  A    between atoms: _194  and  _196
REMARK   68  A    between atoms: _196  and  _197
REMARK   69  A    between atoms: _196  and  _199
REMARK   70  A    between atoms: _199  and  _200
REMARK   71  A    between atoms: _200  and  _201
REMARK   72  A    between atoms: _205  and  _206
REMARK   73  A    between atoms: _212  and  _213
REMARK   74  A    between atoms: _218  and  _220
REMARK   75  A    between atoms: _220  and  _221
REMARK   76  A    between atoms: _220  and  _223
REMARK   77  A    between atoms: _223  and  _224
REMARK   78  A    between atoms: _226  and  _228
REMARK   79  A    between atoms: _228  and  _229
REMARK   80  A    between atoms: _228  and  _231
REMARK   81  A    between atoms: _231  and  _232
REMARK   82  A    between atoms: _235  and  _237
REMARK   83  A    between atoms: _237  and  _238
REMARK   84  A    between atoms: _237  and  _240
REMARK   85  A    between atoms: _242  and  _244
REMARK   86  A    between atoms: _244  and  _245
REMARK   87  A    between atoms: _244  and  _247
REMARK   88  A    between atoms: _247  and  _248
REMARK   89  A    between atoms: _251  and  _253
REMARK   90  A    between atoms: _253  and  _254
REMARK   91  A    between atoms: _253  and  _256
REMARK   92  A    between atoms: _256  and  _257
REMARK   93  A    between atoms: _260  and  _262
REMARK   94  A    between atoms: _262  and  _263
REMARK   95  A    between atoms: _262  and  _265
REMARK   96  A    between atoms: _265  and  _266
REMARK   97  A    between atoms: _269  and  _271
REMARK   98  A    between atoms: _271  and  _272
REMARK   99  A    between atoms: _271  and  _274
REMARK  100  A    between atoms: _274  and  _275
REMARK  101  A    between atoms: _275  and  _276
REMARK                            x       y       z     vdW  Elec       q    Type
REMARK                         _______ _______ _______ _____ _____    ______ ____
ROOT
ATOM      1  CA  ARG A   2     132.305 103.799 -36.248  0.00  0.00    +0.137 C 
ENDROOT
BRANCH   1   3
ATOM      2  C   PHE A   1     133.087 103.885 -38.556  0.00  0.00    +0.239 C 
ATOM      3  N   ARG A   2     132.079 103.939 -37.684  0.00  0.00    -0.298 N 
ATOM      4  H   ARG A   2     131.111 104.084 -38.035  0.00  0.00    +0.150 HD
ATOM      5  O   PHE A   1     134.276 103.845 -38.221  0.00  0.00    -0.274 OA
BRANCH   2   6
ATOM      6  CA  PHE A   1     132.702 103.863 -40.025  0.00  0.00    +0.149 C 
BRANCH   6   7
ATOM      7  N   PHE A   1     133.472 104.811 -40.823  0.00  0.00    -0.238 NA
ATOM      8  H   PHE A   1     134.291 104.464 -41.361  0.00  0.00    +0.142 HD
ENDBRANCH   6   7
BRANCH   6   9
ATOM      9  CB  PHE A   1     132.892 102.453 -40.596  0.00  0.00    +0.053 C 
BRANCH   9  10
ATOM     10  CG  PHE A   1     132.327 101.352 -39.733  0.00  0.00    -0.020 A 
ATOM     11  CD2 PHE A   1     133.168 100.544 -38.971  0.00  0.00    -0.004 A 
ATOM     12  CE2 PHE A   1     132.663  99.502 -38.192  0.00  0.00    -0.000 A 
ATOM     13  CZ  PHE A   1     131.294  99.258 -38.172  0.00  0.00    -0.000 A 
ATOM     14  CE1 PHE A   1     130.444 100.037 -38.948  0.00  0.00    -0.000 A 
ATOM     15  CD1 PHE A   1     130.966 101.094 -39.724  0.00  0.00    -0.004 A 
ENDBRANCH   9  10
ENDBRANCH   6   9
ENDBRANCH   2   6
ENDBRANCH   1   3
BRANCH   1  16
ATOM     16  C   ARG A   2     131.030 103.377 -35.535  0.00  0.00    +0.227 C 
ATOM     17  O   ARG A   2     129.930 103.508 -36.065  0.00  0.00    -0.286 OA
ENDBRANCH   1  16
BRANCH   1  18
ATOM     18  CB  ARG A   2     132.839 105.100 -35.638  0.00  0.00    +0.031 C 
BRANCH  18  19
ATOM     19  CG  ARG A   2     131.822 106.239 -35.550  0.00  0.00    +0.045 C 
BRANCH  19  20
ATOM     20  CD  ARG A   2     131.627 106.944 -36.889  0.00  0.00    +0.174 C 
BRANCH  20  21
ATOM     21  NE  ARG A   2     130.861 108.184 -36.714  0.00  0.00    -0.265 N 
ATOM     22  HE  ARG A   2     130.547 108.437 -35.755  0.00  0.00    +0.259 HD
ATOM     23  CZ  ARG A   2     130.548 108.998 -37.710  0.00  0.00    +0.342 C 
ATOM     24  NH2 ARG A   2     129.843 110.098 -37.484  0.00  0.00    -0.292 N 
ATOM     25 HH21 ARG A   2     129.532 110.327 -36.518  0.00  0.00    +0.255 HD
ATOM     26 HH22 ARG A   2     129.601 110.732 -38.272  0.00  0.00    +0.255 HD
ATOM     27  NH1 ARG A   2     130.933 108.699 -38.942  0.00  0.00    -0.292 N 
ATOM     28 HH11 ARG A   2     131.477 107.831 -39.121  0.00  0.00    +0.255 HD
ATOM     29 HH12 ARG A   2     130.692 109.333 -39.730  0.00  0.00    +0.255 HD
ENDBRANCH  20  21
ENDBRANCH  19  20
ENDBRANCH  18  19
ENDBRANCH   1  18
TORSDOF 10
REMARK  Name = ../refined-set-2016/5aoi/5aoi_pocket.pdb
REMARK  101 active torsions:
REMARK  status: ('A' for Active; 'I' for Inactive)
REMARK    1  A    between atoms: _1  and  _3
REMARK    2  A    between atoms: _3  and  _4
REMARK    3  A    between atoms: _3  and  _6
REMARK    4  A    between atoms: _6  and  _7
REMARK    5  A    between atoms: _12  and  _13
REMARK    6  A    between atoms: _15  and  _17
REMARK    7  A    between atoms: _17  and  _18
REMARK    8  A    between atoms: _17  and  _20
REMARK    9  A    between atoms: _20  and  _21
REMARK   10  A    between atoms: _27  and  _29
REMARK   11  A    between atoms: _29  and  _30
REMARK   12  A    between atoms: _29  and  _32
REMARK   13  A    between atoms: _32  and  _33
REMARK   14  A    between atoms: _33  and  _34
REMARK   15  A    between atoms: _34  and  _35
REMARK   16  A    between atoms: _44  and  _46
REMARK   17  A    between atoms: _46  and  _47
REMARK   18  A    between atoms: _46  and  _49
REMARK   19  A    between atoms: _49  and  _50
REMARK   20  A    between atoms: _53  and  _55
REMARK   21  A    between atoms: _55  and  _56
REMARK   22  A    between atoms: _55  and  _58
REMARK   23  A    between atoms: _58  and  _59
REMARK   24  A    between atoms: _69  and  _71
REMARK   25  A    between atoms: _71  and  _72
REMARK   26  A    between atoms: _71  and  _74
REMARK   27  A    between atoms: _77  and  _79
REMARK   28  A    between atoms: _79  and  _80
REMARK   29  A    between atoms: _79  and  _82
REMARK   30  A    between atoms: _82  and  _83
REMARK   31  A    between atoms: _86  and  _88
REMARK   32  A    between atoms: _88  and  _89
REMARK   33  A    between atoms: _88  and  _91
REMARK   34  A    between atoms: _91  and  _92
REMARK   35  A    between atoms: _94  and  _96
REMARK   36  A    between atoms: _96  and  _97
REMARK   37  A    between atoms: _96  and  _99
REMARK   38  A    between atoms: _99  and  _100
REMARK   39  A    between atoms: _104  and  _105
REMARK   40  A    between atoms: _111  and  _112
REMARK   41  A    between atoms: _118  and  _119
REMARK   42  A    between atoms: _124  and  _126
REMARK   43  A    between atoms: _126  and  _127
REMARK   44  A    between atoms: _129  and  _131
REMARK   45  A    between atoms: _131  and  _132
REMARK   46  A    between atoms: _131  and  _134
REMARK   47  A    between atoms: _134  and  _135
REMARK   48  A    between atoms: _138  and  _140
REMARK   49  A    between atoms: _140  and  _141
REMARK   50  A    between atoms: _140  and  _143
REMARK   51  A    between atoms: _143  and  _144
REMARK   52  A    between atoms: _144  and  _145
REMARK   53  A    between atoms: _145  and  _146
REMARK   54  A    between atoms: _155  and  _157
REMARK   55  A    between atoms: _157  and  _158
REMARK   56  A    between atoms: _157  and  _160
REMARK   57  A    between atoms: _163  and  _165
REMARK   58  A    between atoms: _165  and  _166
REMARK   59  A    between atoms: _165  and  _168
REMARK   60  A    between atoms: _168  and  _169
REMARK   61  A    between atoms: _169  and  _170
REMARK   62  A    between atoms: _170  and  _171
REMARK   63  A    between atoms: _181  and  _182
REMARK   64  A    between atoms: _187  and  _189
REMARK   65  A    between atoms: _189  and  _190
REMARK   66  A    between atoms: _189  and  _192
REMARK   67  A    between atoms: _194  and  _196
REMARK   68  A    between atoms: _196  and  _197
REMARK   69  A    between atoms: _196  and  _199
REMARK   70  A    between atoms: _199  and  _200
REMARK   71  A    between atoms: _200  and  _201
REMARK   72  A    between atoms: _205  and  _206
REMARK   73  A    between atoms: _212  and  _213
REMARK   74  A    between atoms: _218  and  _220
REMARK   75  A    between atoms: _220  and  _221
REMARK   76  A    between atoms: _220  and  _223
REMARK   77  A    between atoms: _223  and  _224
REMARK   78  A    between atoms: _226  and  _228
REMARK   79  A    between atoms: _228  and  _229
REMARK   80  A    between atoms: _228  and  _231
REMARK   81  A    between atoms: _231  and  _232
REMARK   82  A    between atoms: _235  and  _237
REMARK   83  A    between atoms: _237  and  _238
REMARK   84  A    between atoms: _237  and  _240
REMARK   85  A    between atoms: _242  and  _244
REMARK   86  A    between atoms: _244  and  _245
REMARK   87  A    between atoms: _244  and  _247
REMARK   88  A    between atoms: _247  and  _248
REMARK   89  A    between atoms: _251  and  _253
REMARK   90  A    between atoms: _253  and  _254
REMARK   91  A    between atoms: _253  and  _256
REMARK   92  A    between atoms: _256  and  _257
REMARK   93  A    between atoms: _260  and  _262
REMARK   94  A    between atoms: _262  and  _263
REMARK   95  A    between atoms: _262  and  _265
REMARK   96  A    between atoms: _265  and  _266
REMARK   97  A    between atoms: _269  and  _271
REMARK   98  A    between atoms: _271  and  _272
REMARK   99  A    between atoms: _271  and  _274
REMARK  100  A    between atoms: _274  and  _275
REMARK  101  A    between atoms: _275  and  _276
REMARK                            x       y       z     vdW  Elec       q    Type
REMARK                         _______ _______ _______ _____ _____    ______ ____
ROOT
ATOM      1  C   THR A   6     127.498 104.448 -48.459  0.00  0.00    +0.246 C 
ATOM      2  N   PRO A   7     127.710 103.289 -47.829  0.00  0.00    -0.272 N 
ATOM      3  CD  PRO A   7     127.325 102.950 -46.448  0.00  0.00    +0.094 C 
ATOM      4  CG  PRO A   7     127.658 101.479 -46.368  0.00  0.00    +0.024 C 
ATOM      5  CB  PRO A   7     128.759 101.257 -47.305  0.00  0.00    +0.031 C 
ATOM      6  CA  PRO A   7     128.432 102.193 -48.474  0.00  0.00    +0.152 C 
ATOM      7  O   THR A   6     127.976 104.693 -49.560  0.00  0.00    -0.273 OA
ENDROOT
BRANCH   6   8
ATOM      8  C   PRO A   7     127.559 101.496 -49.521  0.00  0.00    +0.244 C 
ATOM      9  O   PRO A   7     126.335 101.649 -49.516  0.00  0.00    -0.273 OA
ATOM     10  N   PRO A   8     128.187 100.730 -50.421  0.00  0.00    -0.272 N 
ATOM     11  CD  PRO A   8     129.648 100.629 -50.566  0.00  0.00    +0.094 C 
ATOM     12  CG  PRO A   8     129.809 100.262 -52.011  0.00  0.00    +0.024 C 
ATOM     13  CB  PRO A   8     128.631  99.460 -52.341  0.00  0.00    +0.031 C 
ATOM     14  CA  PRO A   8     127.487 100.079 -51.532  0.00  0.00    +0.152 C 
BRANCH  14  15
ATOM     15  C   PRO A   8     126.503  98.993 -51.112  0.00  0.00    +0.244 C 
ATOM     16  O   PRO A   8     126.660  98.399 -50.039  0.00  0.00    -0.273 OA
ATOM     17  N   PRO A   9     125.489  98.730 -51.952  0.00  0.00    -0.272 N 
ATOM     18  CA  PRO A   9     124.614  97.585 -51.712  0.00  0.00    +0.152 C 
ATOM     19  CB  PRO A   9     123.700  97.566 -52.944  0.00  0.00    +0.031 C 
ATOM     20  CG  PRO A   9     123.730  98.985 -53.450  0.00  0.00    +0.024 C 
ATOM     21  CD  PRO A   9     125.119  99.465 -53.181  0.00  0.00    +0.094 C 
BRANCH  18  22
ATOM     22  C   PRO A   9     125.463  96.317 -51.617  0.00  0.00    +0.241 C 
ATOM     23  N   GLY A  10     125.168  95.470 -50.638  0.00  0.00    -0.295 N 
ATOM     24  H   GLY A  10     124.371  95.678 -50.003  0.00  0.00    +0.150 HD
ATOM     25  O   PRO A   9     126.393  96.141 -52.410  0.00  0.00    -0.273 OA
BRANCH  23  26
ATOM     26  CA  GLY A  10     125.942  94.257 -50.440  0.00  0.00    +0.176 C 
BRANCH  26  27
ATOM     27  C   GLY A  10     126.981  94.366 -49.335  0.00  0.00    +0.243 C 
ATOM     28  N   THR A  11     127.190  95.576 -48.832  0.00  0.00    -0.295 N 
ATOM     29  H   THR A  11     126.739  96.402 -49.275  0.00  0.00    +0.150 HD
ATOM     30  O   GLY A  10     127.596  93.381 -48.948  0.00  0.00    -0.273 OA
BRANCH  28  31
ATOM     31  CA  THR A  11     128.043  95.760 -47.667  0.00  0.00    +0.176 C 
BRANCH  31  32
ATOM     32  C   THR A  11     127.458  94.995 -46.495  0.00  0.00    +0.243 C 
ATOM     33  N   ARG A  12     128.319  94.364 -45.690  0.00  0.00    -0.297 N 
ATOM     34  H   ARG A  12     129.339  94.442 -45.880  0.00  0.00    +0.150 HD
ATOM     35  O   THR A  11     126.244  94.969 -46.331  0.00  0.00    -0.273 OA
BRANCH  33  36
ATOM     36  CA  ARG A  12     127.870  93.572 -44.557  0.00  0.00    +0.149 C 
BRANCH  36  37
ATOM     37  C   ARG A  12     128.602  93.986 -43.280  0.00  0.00    +0.241 C 
ATOM     38  N   VAL A  13     128.100  93.531 -42.138  0.00  0.00    -0.298 N 
ATOM     39  H   VAL A  13     127.242  92.943 -42.148  0.00  0.00    +0.150 HD
ATOM     40  O   ARG A  12     129.615  94.684 -43.329  0.00  0.00    -0.273 OA
BRANCH  38  41
ATOM     41  CA  VAL A  13     128.743  93.851 -40.874  0.00  0.00    +0.137 C 
BRANCH  41  42
ATOM     42  CB  VAL A  13     127.952  94.911 -40.069  0.00  0.00    +0.026 C 
ATOM     43  CG2 VAL A  13     128.576  95.122 -38.712  0.00  0.00    +0.002 C 
ATOM     44  CG1 VAL A  13     126.515  94.513 -39.916  0.00  0.00    +0.002 C 
ENDBRANCH  41  42
BRANCH  41  45
ATOM     45  C   VAL A  13     128.897  92.553 -40.078  0.00  0.00    +0.227 C 
ATOM     46  O   VAL A  13     127.940  91.789 -39.941  0.00  0.00    -0.286 OA
ENDBRANCH  41  45
ENDBRANCH  38  41
ENDBRANCH  36  37
BRANCH  36  47
ATOM     47  CB  ARG A  12     128.083  92.078 -44.824  0.00  0.00    +0.033 C 
BRANCH  47  48
ATOM     48  CG  ARG A  12     127.297  91.556 -46.013  0.00  0.00    +0.045 C 
BRANCH  48  49
ATOM     49  CD  ARG A  12     126.984  90.072 -45.867  0.00  0.00    +0.174 C 
BRANCH  49  50
ATOM     50  NE  ARG A  12     128.183  89.245 -45.935  0.00  0.00    -0.265 N 
ATOM     51  CZ  ARG A  12     128.182  87.917 -45.831  0.00  0.00    +0.342 C 
ATOM     52  NH2 ARG A  12     127.045  87.266 -45.623  0.00  0.00    -0.292 N 
ATOM     53 HH21 ARG A  12     126.152  87.792 -45.541  0.00  0.00    +0.255 HD
ATOM     54 HH22 ARG A  12     127.047  86.229 -45.542  0.00  0.00    +0.255 HD
ATOM     55  NH1 ARG A  12     129.320  87.244 -45.921  0.00  0.00    -0.292 N 
ATOM     56 HH11 ARG A  12     129.319  86.207 -45.840  0.00  0.00    +0.255 HD
ATOM     57 HH12 ARG A  12     130.214  87.753 -46.073  0.00  0.00    +0.255 HD
ATOM     58  HE  ARG A  12     129.097  89.722 -46.073  0.00  0.00    +0.259 HD
ENDBRANCH  49  50
ENDBRANCH  48  49
ENDBRANCH  47  48
ENDBRANCH  36  47
ENDBRANCH  33  36
ENDBRANCH  31  32
BRANCH  31  59
ATOM     59  CB  THR A  11     128.164  97.256 -47.319  0.00  0.00    +0.137 C 
ATOM     60  CG2 THR A  11     129.043  97.468 -46.098  0.00  0.00    +0.034 C 
BRANCH  59  61
ATOM     61  OG1 THR A  11     128.745  97.948 -48.430  0.00  0.00    -0.382 OA
ATOM     62  HG1 THR A  11     128.167  97.836 -49.226  0.00  0.00    +0.210 HD
ENDBRANCH  59  61
ENDBRANCH  31  59
ENDBRANCH  28  31
ENDBRANCH  26  27
ENDBRANCH  23  26
ENDBRANCH  18  22
ENDBRANCH  14  15
ENDBRANCH   6   8
BRANCH   1  63
ATOM     63  CA  THR A   6     126.645 105.484 -47.729  0.00  0.00    +0.176 C 
BRANCH  63  66
ATOM     64  C   SER A   5     128.326 106.866 -46.667  0.00  0.00    +0.243 C 
ATOM     65  O   SER A   5     128.754 105.925 -46.006  0.00  0.00    -0.273 OA
ATOM     66  N   THR A   6     127.358 106.739 -47.561  0.00  0.00    -0.295 N 
ATOM     67  H   THR A   6     127.103 107.554 -48.155  0.00  0.00    +0.150 HD
BRANCH  64  68
ATOM     68  CA  SER A   5     128.884 108.272 -46.480  0.00  0.00    +0.178 C 
BRANCH  68  71
ATOM     69  C   ASP A   4     129.320 109.511 -44.454  0.00  0.00    +0.241 C 
ATOM     70  O   ASP A   4     128.753 110.504 -44.919  0.00  0.00    -0.273 OA
ATOM     71  N   SER A   5     129.472 108.395 -45.151  0.00  0.00    -0.295 N 
ATOM     72  H   SER A   5     130.013 107.603 -44.749  0.00  0.00    +0.150 HD
BRANCH  69  73
ATOM     73  CA  ASP A   4     129.915 109.526 -43.052  0.00  0.00    +0.160 C 
BRANCH  73  76
ATOM     74  C   VAL A   3     128.872 107.640 -41.907  0.00  0.00    +0.241 C 
ATOM     75  O   VAL A   3     127.802 108.219 -41.825  0.00  0.00    -0.273 OA
ATOM     76  N   ASP A   4     129.955 108.188 -42.437  0.00  0.00    -0.297 N 
ATOM     77  H   ASP A   4     130.852 107.663 -42.419  0.00  0.00    +0.150 HD
BRANCH  74  78
ATOM     78  CA  VAL A   3     129.013 106.209 -41.396  0.00  0.00    +0.149 C 
BRANCH  78  81
ATOM     79  C   TRP A   2     128.498 105.290 -39.212  0.00  0.00    +0.241 C 
ATOM     80  O   TRP A   2     129.607 104.754 -39.117  0.00  0.00    -0.273 OA
ATOM     81  N   VAL A   3     128.101 105.960 -40.294  0.00  0.00    -0.297 N 
ATOM     82  H   VAL A   3     127.123 106.310 -40.350  0.00  0.00    +0.150 HD
BRANCH  79  83
ATOM     83  CA  TRP A   2     127.522 105.217 -38.053  0.00  0.00    +0.153 C 
BRANCH  83  85
ATOM     84  C   LEU A   1     126.416 103.093 -37.581  0.00  0.00    +0.238 C 
ATOM     85  N   TRP A   2     127.492 103.863 -37.492  0.00  0.00    -0.297 N 
ATOM     86  H   TRP A   2     128.338 103.496 -37.011  0.00  0.00    +0.150 HD
ATOM     87  O   LEU A   1     125.366 103.457 -38.104  0.00  0.00    -0.274 OA
BRANCH  84  88
ATOM     88  CA  LEU A   1     126.534 101.692 -37.001  0.00  0.00    +0.145 C 
BRANCH  88  89
ATOM     89  N   LEU A   1     125.519 101.511 -35.969  0.00  0.00    -0.238 NA
ATOM     90  H   LEU A   1     124.524 101.404 -36.253  0.00  0.00    +0.142 HD
ENDBRANCH  88  89
BRANCH  88  91
ATOM     91  CB  LEU A   1     126.382 100.666 -38.132  0.00  0.00    +0.026 C 
BRANCH  91  92
ATOM     92  CG  LEU A   1     126.222  99.205 -37.707  0.00  0.00    +0.002 C 
ATOM     93  CD2 LEU A   1     127.402  98.739 -36.853  0.00  0.00    +0.000 C 
ATOM     94  CD1 LEU A   1     126.087  98.347 -38.975  0.00  0.00    +0.000 C 
ENDBRANCH  91  92
ENDBRANCH  88  91
ENDBRANCH  84  88
ENDBRANCH  83  85
BRANCH  83  95
ATOM     95  CB  TRP A   2     127.928 106.233 -36.983  0.00  0.00    +0.057 C 
BRANCH  95  96
ATOM     96  CG  TRP A   2     126.928 106.385 -35.891  0.00  0.00    -0.002 A 
ATOM     97  CD1 TRP A   2     126.858 105.678 -34.716  0.00  0.00    +0.068 A 
ATOM     98  NE1 TRP A   2     125.787 106.118 -33.969  0.00  0.00    -0.352 N 
ATOM     99  HE1 TRP A   2     125.499 105.742 -33.043  0.00  0.00    +0.166 HD
ATOM    100  CE2 TRP A   2     125.161 107.137 -34.649  0.00  0.00    +0.056 A 
ATOM    101  CZ2 TRP A   2     124.037 107.891 -34.308  0.00  0.00    +0.017 A 
ATOM    102  CH2 TRP A   2     123.616 108.834 -35.207  0.00  0.00    +0.001 A 
ATOM    103  CZ3 TRP A   2     124.292 109.048 -36.417  0.00  0.00    +0.000 A 
ATOM    104  CE3 TRP A   2     125.400 108.304 -36.756  0.00  0.00    +0.001 A 
ATOM    105  CD2 TRP A   2     125.851 107.324 -35.863  0.00  0.00    +0.013 A 
ENDBRANCH  95  96
ENDBRANCH  83  95
ENDBRANCH  79  83
ENDBRANCH  78  81
BRANCH  78 106
ATOM    106  CB  VAL A   3     128.776 105.224 -42.563  0.00  0.00    +0.027 C 
ATOM    107  CG2 VAL A   3     129.226 103.818 -42.167  0.00  0.00    +0.002 C 
ATOM    108  CG1 VAL A   3     127.313 105.202 -42.961  0.00  0.00    +0.002 C 
ENDBRANCH  78 106
ENDBRANCH  74  78
ENDBRANCH  73  76
BRANCH  73 109
ATOM    109  CB  ASP A   4     131.316 110.124 -43.107  0.00  0.00    +0.143 C 
BRANCH 109 110
ATOM    110  CG  ASP A   4     131.846 110.485 -41.743  0.00  0.00    +0.367 C 
ATOM    111  OD2 ASP A   4     131.022 110.791 -40.856  0.00  0.00    -0.246 OA
ATOM    112  OD1 ASP A   4     133.082 110.469 -41.561  0.00  0.00    -0.246 OA
ENDBRANCH 109 110
ENDBRANCH  73 109
ENDBRANCH  69  73
ENDBRANCH  68  71
BRANCH  68 113
ATOM    113  CB  SER A   5     129.899 108.601 -47.576  0.00  0.00    +0.166 C 
BRANCH 113 114
ATOM    114  OG  SER A   5     131.131 107.942 -47.369  0.00  0.00    -0.380 OA
ATOM    115  H   SER A   5     131.512 108.222 -46.499  0.00  0.00    +0.211 HD
ENDBRANCH 113 114
ENDBRANCH  68 113
ENDBRANCH  64  68
ENDBRANCH  63  66
BRANCH  63 116
ATOM    116  CB  THR A   6     125.347 105.714 -48.493  0.00  0.00    +0.137 C 
ATOM    117  CG2 THR A   6     124.529 104.447 -48.555  0.00  0.00    +0.034 C 
BRANCH 116 118
ATOM    118  OG1 THR A   6     124.596 106.748 -47.840  0.00  0.00    -0.382 OA
ATOM    119  HG1 THR A   6     125.128 107.583 -47.827  0.00  0.00    +0.210 HD
ENDBRANCH 116 118
ENDBRANCH  63 116
ENDBRANCH   1  63
TORSDOF 41
REMARK  Name = ../refined-set-2016/5aoi/5aoi_pocket.pdb
REMARK  101 active torsions:
REMARK  status: ('A' for Active; 'I' for Inactive)
REMARK    1  A    between atoms: _1  and  _3
REMARK    2  A    between atoms: _3  and  _4
REMARK    3  A    between atoms: _3  and  _6
REMARK    4  A    between atoms: _6  and  _7
REMARK    5  A    between atoms: _12  and  _13
REMARK    6  A    between atoms: _15  and  _17
REMARK    7  A    between atoms: _17  and  _18
REMARK    8  A    between atoms: _17  and  _20
REMARK    9  A    between atoms: _20  and  _21
REMARK   10  A    between atoms: _27  and  _29
REMARK   11  A    between atoms: _29  and  _30
REMARK   12  A    between atoms: _29  and  _32
REMARK   13  A    between atoms: _32  and  _33
REMARK   14  A    between atoms: _33  and  _34
REMARK   15  A    between atoms: _34  and  _35
REMARK   16  A    between atoms: _44  and  _46
REMARK   17  A    between atoms: _46  and  _47
REMARK   18  A    between atoms: _46  and  _49
REMARK   19  A    between atoms: _49  and  _50
REMARK   20  A    between atoms: _53  and  _55
REMARK   21  A    between atoms: _55  and  _56
REMARK   22  A    between atoms: _55  and  _58
REMARK   23  A    between atoms: _58  and  _59
REMARK   24  A    between atoms: _69  and  _71
REMARK   25  A    between atoms: _71  and  _72
REMARK   26  A    between atoms: _71  and  _74
REMARK   27  A    between atoms: _77  and  _79
REMARK   28  A    between atoms: _79  and  _80
REMARK   29  A    between atoms: _79  and  _82
REMARK   30  A    between atoms: _82  and  _83
REMARK   31  A    between atoms: _86  and  _88
REMARK   32  A    between atoms: _88  and  _89
REMARK   33  A    between atoms: _88  and  _91
REMARK   34  A    between atoms: _91  and  _92
REMARK   35  A    between atoms: _94  and  _96
REMARK   36  A    between atoms: _96  and  _97
REMARK   37  A    between atoms: _96  and  _99
REMARK   38  A    between atoms: _99  and  _100
REMARK   39  A    between atoms: _104  and  _105
REMARK   40  A    between atoms: _111  and  _112
REMARK   41  A    between atoms: _118  and  _119
REMARK   42  A    between atoms: _124  and  _126
REMARK   43  A    between atoms: _126  and  _127
REMARK   44  A    between atoms: _129  and  _131
REMARK   45  A    between atoms: _131  and  _132
REMARK   46  A    between atoms: _131  and  _134
REMARK   47  A    between atoms: _134  and  _135
REMARK   48  A    between atoms: _138  and  _140
REMARK   49  A    between atoms: _140  and  _141
REMARK   50  A    between atoms: _140  and  _143
REMARK   51  A    between atoms: _143  and  _144
REMARK   52  A    between atoms: _144  and  _145
REMARK   53  A    between atoms: _145  and  _146
REMARK   54  A    between atoms: _155  and  _157
REMARK   55  A    between atoms: _157  and  _158
REMARK   56  A    between atoms: _157  and  _160
REMARK   57  A    between atoms: _163  and  _165
REMARK   58  A    between atoms: _165  and  _166
REMARK   59  A    between atoms: _165  and  _168
REMARK   60  A    between atoms: _168  and  _169
REMARK   61  A    between atoms: _169  and  _170
REMARK   62  A    between atoms: _170  and  _171
REMARK   63  A    between atoms: _181  and  _182
REMARK   64  A    between atoms: _187  and  _189
REMARK   65  A    between atoms: _189  and  _190
REMARK   66  A    between atoms: _189  and  _192
REMARK   67  A    between atoms: _194  and  _196
REMARK   68  A    between atoms: _196  and  _197
REMARK   69  A    between atoms: _196  and  _199
REMARK   70  A    between atoms: _199  and  _200
REMARK   71  A    between atoms: _200  and  _201
REMARK   72  A    between atoms: _205  and  _206
REMARK   73  A    between atoms: _212  and  _213
REMARK   74  A    between atoms: _218  and  _220
REMARK   75  A    between atoms: _220  and  _221
REMARK   76  A    between atoms: _220  and  _223
REMARK   77  A    between atoms: _223  and  _224
REMARK   78  A    between atoms: _226  and  _228
REMARK   79  A    between atoms: _228  and  _229
REMARK   80  A    between atoms: _228  and  _231
REMARK   81  A    between atoms: _231  and  _232
REMARK   82  A    between atoms: _235  and  _237
REMARK   83  A    between atoms: _237  and  _238
REMARK   84  A    between atoms: _237  and  _240
REMARK   85  A    between atoms: _242  and  _244
REMARK   86  A    between atoms: _244  and  _245
REMARK   87  A    between atoms: _244  and  _247
REMARK   88  A    between atoms: _247  and  _248
REMARK   89  A    between atoms: _251  and  _253
REMARK   90  A    between atoms: _253  and  _254
REMARK   91  A    between atoms: _253  and  _256
REMARK   92  A    between atoms: _256  and  _257
REMARK   93  A    between atoms: _260  and  _262
REMARK   94  A    between atoms: _262  and  _263
REMARK   95  A    between atoms: _262  and  _265
REMARK   96  A    between atoms: _265  and  _266
REMARK   97  A    between atoms: _269  and  _271
REMARK   98  A    between atoms: _271  and  _272
REMARK   99  A    between atoms: _271  and  _274
REMARK  100  A    between atoms: _274  and  _275
REMARK  101  A    between atoms: _275  and  _276
REMARK                            x       y       z     vdW  Elec       q    Type
REMARK                         _______ _______ _______ _____ _____    ______ ____
ROOT
ATOM      1  NE  ARG A   1     118.592  90.624 -45.584  0.00  0.00    -0.265 N 
ATOM      2  HE  ARG A   1     118.221  90.704 -44.616  0.00  0.00    +0.259 HD
ATOM      3  CZ  ARG A   1     119.005  91.737 -46.183  0.00  0.00    +0.342 C 
ATOM      4  NH2 ARG A   1     118.933  92.899 -45.542  0.00  0.00    -0.292 N 
ATOM      5 HH21 ARG A   1     118.554  92.936 -44.574  0.00  0.00    +0.255 HD
ATOM      6 HH22 ARG A   1     119.255  93.771 -46.008  0.00  0.00    +0.255 HD
ATOM      7  NH1 ARG A   1     119.496  91.691 -47.416  0.00  0.00    -0.292 N 
ATOM      8 HH11 ARG A   1     119.818  92.564 -47.880  0.00  0.00    +0.255 HD
ATOM      9 HH12 ARG A   1     119.559  90.782 -47.917  0.00  0.00    +0.255 HD
ENDROOT
BRANCH   1  10
ATOM     10  CD  ARG A   1     118.624  89.298 -46.192  0.00  0.00    +0.174 C 
BRANCH  10  11
ATOM     11  CG  ARG A   1     118.442  88.209 -45.149  0.00  0.00    +0.045 C 
BRANCH  11  12
ATOM     12  CB  ARG A   1     119.539  88.262 -44.089  0.00  0.00    +0.029 C 
BRANCH  12  13
ATOM     13  CA  ARG A   1     119.561  87.030 -43.180  0.00  0.00    +0.133 C 
BRANCH  13  14
ATOM     14  N   ARG A   1     118.457  87.076 -42.235  0.00  0.00    -0.239 NA
ATOM     15  H   ARG A   1     118.176  87.984 -41.813  0.00  0.00    +0.142 HD
ENDBRANCH  13  14
BRANCH  13  16
ATOM     16  C   ARG A   1     120.913  86.913 -42.478  0.00  0.00    +0.224 C 
ATOM     17  O   ARG A   1     121.947  86.967 -43.126  0.00  0.00    -0.287 OA
ENDBRANCH  13  16
ENDBRANCH  12  13
ENDBRANCH  11  12
ENDBRANCH  10  11
ENDBRANCH   1  10
TORSDOF 6
REMARK  Name = ../refined-set-2016/5aoi/5aoi_pocket.pdb
REMARK  101 active torsions:
REMARK  status: ('A' for Active; 'I' for Inactive)
REMARK    1  A    between atoms: _1  and  _3
REMARK    2  A    between atoms: _3  and  _4
REMARK    3  A    between atoms: _3  and  _6
REMARK    4  A    between atoms: _6  and  _7
REMARK    5  A    between atoms: _12  and  _13
REMARK    6  A    between atoms: _15  and  _17
REMARK    7  A    between atoms: _17  and  _18
REMARK    8  A    between atoms: _17  and  _20
REMARK    9  A    between atoms: _20  and  _21
REMARK   10  A    between atoms: _27  and  _29
REMARK   11  A    between atoms: _29  and  _30
REMARK   12  A    between atoms: _29  and  _32
REMARK   13  A    between atoms: _32  and  _33
REMARK   14  A    between atoms: _33  and  _34
REMARK   15  A    between atoms: _34  and  _35
REMARK   16  A    between atoms: _44  and  _46
REMARK   17  A    between atoms: _46  and  _47
REMARK   18  A    between atoms: _46  and  _49
REMARK   19  A    between atoms: _49  and  _50
REMARK   20  A    between atoms: _53  and  _55
REMARK   21  A    between atoms: _55  and  _56
REMARK   22  A    between atoms: _55  and  _58
REMARK   23  A    between atoms: _58  and  _59
REMARK   24  A    between atoms: _69  and  _71
REMARK   25  A    between atoms: _71  and  _72
REMARK   26  A    between atoms: _71  and  _74
REMARK   27  A    between atoms: _77  and  _79
REMARK   28  A    between atoms: _79  and  _80
REMARK   29  A    between atoms: _79  and  _82
REMARK   30  A    between atoms: _82  and  _83
REMARK   31  A    between atoms: _86  and  _88
REMARK   32  A    between atoms: _88  and  _89
REMARK   33  A    between atoms: _88  and  _91
REMARK   34  A    between atoms: _91  and  _92
REMARK   35  A    between atoms: _94  and  _96
REMARK   36  A    between atoms: _96  and  _97
REMARK   37  A    between atoms: _96  and  _99
REMARK   38  A    between atoms: _99  and  _100
REMARK   39  A    between atoms: _104  and  _105
REMARK   40  A    between atoms: _111  and  _112
REMARK   41  A    between atoms: _118  and  _119
REMARK   42  A    between atoms: _124  and  _126
REMARK   43  A    between atoms: _126  and  _127
REMARK   44  A    between atoms: _129  and  _131
REMARK   45  A    between atoms: _131  and  _132
REMARK   46  A    between atoms: _131  and  _134
REMARK   47  A    between atoms: _134  and  _135
REMARK   48  A    between atoms: _138  and  _140
REMARK   49  A    between atoms: _140  and  _141
REMARK   50  A    between atoms: _140  and  _143
REMARK   51  A    between atoms: _143  and  _144
REMARK   52  A    between atoms: _144  and  _145
REMARK   53  A    between atoms: _145  and  _146
REMARK   54  A    between atoms: _155  and  _157
REMARK   55  A    between atoms: _157  and  _158
REMARK   56  A    between atoms: _157  and  _160
REMARK   57  A    between atoms: _163  and  _165
REMARK   58  A    between atoms: _165  and  _166
REMARK   59  A    between atoms: _165  and  _168
REMARK   60  A    between atoms: _168  and  _169
REMARK   61  A    between atoms: _169  and  _170
REMARK   62  A    between atoms: _170  and  _171
REMARK   63  A    between atoms: _181  and  _182
REMARK   64  A    between atoms: _187  and  _189
REMARK   65  A    between atoms: _189  and  _190
REMARK   66  A    between atoms: _189  and  _192
REMARK   67  A    between atoms: _194  and  _196
REMARK   68  A    between atoms: _196  and  _197
REMARK   69  A    between atoms: _196  and  _199
REMARK   70  A    between atoms: _199  and  _200
REMARK   71  A    between atoms: _200  and  _201
REMARK   72  A    between atoms: _205  and  _206
REMARK   73  A    between atoms: _212  and  _213
REMARK   74  A    between atoms: _218  and  _220
REMARK   75  A    between atoms: _220  and  _221
REMARK   76  A    between atoms: _220  and  _223
REMARK   77  A    between atoms: _223  and  _224
REMARK   78  A    between atoms: _226  and  _228
REMARK   79  A    between atoms: _228  and  _229
REMARK   80  A    between atoms: _228  and  _231
REMARK   81  A    between atoms: _231  and  _232
REMARK   82  A    between atoms: _235  and  _237
REMARK   83  A    between atoms: _237  and  _238
REMARK   84  A    between atoms: _237  and  _240
REMARK   85  A    between atoms: _242  and  _244
REMARK   86  A    between atoms: _244  and  _245
REMARK   87  A    between atoms: _244  and  _247
REMARK   88  A    between atoms: _247  and  _248
REMARK   89  A    between atoms: _251  and  _253
REMARK   90  A    between atoms: _253  and  _254
REMARK   91  A    between atoms: _253  and  _256
REMARK   92  A    between atoms: _256  and  _257
REMARK   93  A    between atoms: _260  and  _262
REMARK   94  A    between atoms: _262  and  _263
REMARK   95  A    between atoms: _262  and  _265
REMARK   96  A    between atoms: _265  and  _266
REMARK   97  A    between atoms: _269  and  _271
REMARK   98  A    between atoms: _271  and  _272
REMARK   99  A    between atoms: _271  and  _274
REMARK  100  A    between atoms: _274  and  _275
REMARK  101  A    between atoms: _275  and  _276
REMARK                            x       y       z     vdW  Elec       q    Type
REMARK                         _______ _______ _______ _____ _____    ______ ____
ROOT
ATOM      1  CA  GLU A   3     120.622  98.205 -44.248  0.00  0.00    +0.149 C 
ENDROOT
BRANCH   1   2
ATOM      2  C   GLU A   3     120.679  99.694 -43.953  0.00  0.00    +0.244 C 
ATOM      3  O   GLU A   3     121.391 100.119 -43.033  0.00  0.00    -0.273 OA
ATOM      4  N   PRO A   4     119.951 100.492 -44.749  0.00  0.00    -0.272 N 
ATOM      5  CA  PRO A   4     119.791 101.916 -44.460  0.00  0.00    +0.152 C 
ATOM      6  CB  PRO A   4     118.978 102.431 -45.655  0.00  0.00    +0.031 C 
ATOM      7  CG  PRO A   4     119.194 101.415 -46.739  0.00  0.00    +0.024 C 
ATOM      8  CD  PRO A   4     119.296 100.111 -46.015  0.00  0.00    +0.094 C 
BRANCH   5   9
ATOM      9  C   PRO A   4     119.031 102.124 -43.154  0.00  0.00    +0.244 C 
ATOM     10  N   PRO A   5     119.278 103.252 -42.474  0.00  0.00    -0.273 N 
ATOM     11  CA  PRO A   5     118.557 103.595 -41.247  0.00  0.00    +0.140 C 
ATOM     12  CB  PRO A   5     119.082 104.992 -40.914  0.00  0.00    +0.030 C 
ATOM     13  CG  PRO A   5     120.430 105.038 -41.517  0.00  0.00    +0.024 C 
ATOM     14  CD  PRO A   5     120.335 104.224 -42.783  0.00  0.00    +0.094 C 
ATOM     15  O   PRO A   4     118.235 101.272 -42.768  0.00  0.00    -0.273 OA
BRANCH  11  16
ATOM     16  C   PRO A   5     117.044 103.618 -41.463  0.00  0.00    +0.227 C 
ATOM     17  O   PRO A   5     116.590 103.991 -42.542  0.00  0.00    -0.286 OA
ENDBRANCH  11  16
ENDBRANCH   5   9
ENDBRANCH   1   2
BRANCH   1  19
ATOM     18  C   CYS A   2     122.692  96.971 -44.491  0.00  0.00    +0.242 C 
ATOM     19  N   GLU A   3     121.815  97.583 -43.709  0.00  0.00    -0.297 N 
ATOM     20  H   GLU A   3     121.987  97.618 -42.684  0.00  0.00    +0.150 HD
ATOM     21  O   CYS A   2     122.543  96.834 -45.710  0.00  0.00    -0.273 OA
BRANCH  18  22
ATOM     22  CA  CYS A   2     123.911  96.419 -43.789  0.00  0.00    +0.160 C 
BRANCH  22  25
ATOM     23  C   PRO A   1     123.463  94.040 -43.844  0.00  0.00    +0.239 C 
ATOM     24  O   PRO A   1     122.629  94.120 -42.958  0.00  0.00    -0.274 OA
ATOM     25  N   CYS A   2     124.190  95.068 -44.261  0.00  0.00    -0.296 N 
ATOM     26  H   CYS A   2     124.968  94.909 -44.932  0.00  0.00    +0.150 HD
BRANCH  23  31
ATOM     27  N   PRO A   1     123.606  91.614 -43.538  0.00  0.00    -0.210 NA
ATOM     28  CD  PRO A   1     122.541  90.655 -43.882  0.00  0.00    +0.089 C 
ATOM     29  CG  PRO A   1     122.307  90.938 -45.354  0.00  0.00    +0.021 C 
ATOM     30  CB  PRO A   1     122.561  92.395 -45.506  0.00  0.00    +0.028 C 
ATOM     31  CA  PRO A   1     123.695  92.705 -44.514  0.00  0.00    +0.149 C 
ENDBRANCH  23  31
ENDBRANCH  22  25
BRANCH  22  32
ATOM     32  CB  CYS A   2     125.101  97.328 -44.026  0.00  0.00    +0.098 C 
ATOM     33  SG  CYS A   2     126.500  96.825 -43.072  0.00  0.00    -0.080 S 
ENDBRANCH  22  32
ENDBRANCH  18  22
ENDBRANCH   1  19
BRANCH   1  34
ATOM     34  CB  GLU A   3     119.356  97.585 -43.646  0.00  0.00    +0.041 C 
BRANCH  34  35
ATOM     35  CG  GLU A   3     119.056  96.174 -44.103  0.00  0.00    +0.116 C 
BRANCH  35  36
ATOM     36  CD  GLU A   3     118.335  95.368 -43.043  0.00  0.00    +0.365 C 
ATOM     37  OE2 GLU A   3     118.557  95.628 -41.837  0.00  0.00    -0.246 OA
ATOM     38  OE1 GLU A   3     117.541  94.474 -43.412  0.00  0.00    -0.246 OA
ENDBRANCH  35  36
ENDBRANCH  34  35
ENDBRANCH   1  34
TORSDOF 11
REMARK  Name = ../refined-set-2016/5aoi/5aoi_pocket.pdb
REMARK  101 active torsions:
REMARK  status: ('A' for Active; 'I' for Inactive)
REMARK    1  A    between atoms: _1  and  _3
REMARK    2  A    between atoms: _3  and  _4
REMARK    3  A    between atoms: _3  and  _6
REMARK    4  A    between atoms: _6  and  _7
REMARK    5  A    between atoms: _12  and  _13
REMARK    6  A    between atoms: _15  and  _17
REMARK    7  A    between atoms: _17  and  _18
REMARK    8  A    between atoms: _17  and  _20
REMARK    9  A    between atoms: _20  and  _21
REMARK   10  A    between atoms: _27  and  _29
REMARK   11  A    between atoms: _29  and  _30
REMARK   12  A    between atoms: _29  and  _32
REMARK   13  A    between atoms: _32  and  _33
REMARK   14  A    between atoms: _33  and  _34
REMARK   15  A    between atoms: _34  and  _35
REMARK   16  A    between atoms: _44  and  _46
REMARK   17  A    between atoms: _46  and  _47
REMARK   18  A    between atoms: _46  and  _49
REMARK   19  A    between atoms: _49  and  _50
REMARK   20  A    between atoms: _53  and  _55
REMARK   21  A    between atoms: _55  and  _56
REMARK   22  A    between atoms: _55  and  _58
REMARK   23  A    between atoms: _58  and  _59
REMARK   24  A    between atoms: _69  and  _71
REMARK   25  A    between atoms: _71  and  _72
REMARK   26  A    between atoms: _71  and  _74
REMARK   27  A    between atoms: _77  and  _79
REMARK   28  A    between atoms: _79  and  _80
REMARK   29  A    between atoms: _79  and  _82
REMARK   30  A    between atoms: _82  and  _83
REMARK   31  A    between atoms: _86  and  _88
REMARK   32  A    between atoms: _88  and  _89
REMARK   33  A    between atoms: _88  and  _91
REMARK   34  A    between atoms: _91  and  _92
REMARK   35  A    between atoms: _94  and  _96
REMARK   36  A    between atoms: _96  and  _97
REMARK   37  A    between atoms: _96  and  _99
REMARK   38  A    between atoms: _99  and  _100
REMARK   39  A    between atoms: _104  and  _105
REMARK   40  A    between atoms: _111  and  _112
REMARK   41  A    between atoms: _118  and  _119
REMARK   42  A    between atoms: _124  and  _126
REMARK   43  A    between atoms: _126  and  _127
REMARK   44  A    between atoms: _129  and  _131
REMARK   45  A    between atoms: _131  and  _132
REMARK   46  A    between atoms: _131  and  _134
REMARK   47  A    between atoms: _134  and  _135
REMARK   48  A    between atoms: _138  and  _140
REMARK   49  A    between atoms: _140  and  _141
REMARK   50  A    between atoms: _140  and  _143
REMARK   51  A    between atoms: _143  and  _144
REMARK   52  A    between atoms: _144  and  _145
REMARK   53  A    between atoms: _145  and  _146
REMARK   54  A    between atoms: _155  and  _157
REMARK   55  A    between atoms: _157  and  _158
REMARK   56  A    between atoms: _157  and  _160
REMARK   57  A    between atoms: _163  and  _165
REMARK   58  A    between atoms: _165  and  _166
REMARK   59  A    between atoms: _165  and  _168
REMARK   60  A    between atoms: _168  and  _169
REMARK   61  A    between atoms: _169  and  _170
REMARK   62  A    between atoms: _170  and  _171
REMARK   63  A    between atoms: _181  and  _182
REMARK   64  A    between atoms: _187  and  _189
REMARK   65  A    between atoms: _189  and  _190
REMARK   66  A    between atoms: _189  and  _192
REMARK   67  A    between atoms: _194  and  _196
REMARK   68  A    between atoms: _196  and  _197
REMARK   69  A    between atoms: _196  and  _199
REMARK   70  A    between atoms: _199  and  _200
REMARK   71  A    between atoms: _200  and  _201
REMARK   72  A    between atoms: _205  and  _206
REMARK   73  A    between atoms: _212  and  _213
REMARK   74  A    between atoms: _218  and  _220
REMARK   75  A    between atoms: _220  and  _221
REMARK   76  A    between atoms: _220  and  _223
REMARK   77  A    between atoms: _223  and  _224
REMARK   78  A    between atoms: _226  and  _228
REMARK   79  A    between atoms: _228  and  _229
REMARK   80  A    between atoms: _228  and  _231
REMARK   81  A    between atoms: _231  and  _232
REMARK   82  A    between atoms: _235  and  _237
REMARK   83  A    between atoms: _237  and  _238
REMARK   84  A    between atoms: _237  and  _240
REMARK   85  A    between atoms: _242  and  _244
REMARK   86  A    between atoms: _244  and  _245
REMARK   87  A    between atoms: _244  and  _247
REMARK   88  A    between atoms: _247  and  _248
REMARK   89  A    between atoms: _251  and  _253
REMARK   90  A    between atoms: _253  and  _254
REMARK   91  A    between atoms: _253  and  _256
REMARK   92  A    between atoms: _256  and  _257
REMARK   93  A    between atoms: _260  and  _262
REMARK   94  A    between atoms: _262  and  _263
REMARK   95  A    between atoms: _262  and  _265
REMARK   96  A    between atoms: _265  and  _266
REMARK   97  A    between atoms: _269  and  _271
REMARK   98  A    between atoms: _271  and  _272
REMARK   99  A    between atoms: _271  and  _274
REMARK  100  A    between atoms: _274  and  _275
REMARK  101  A    between atoms: _275  and  _276
REMARK                            x       y       z     vdW  Elec       q    Type
REMARK                         _______ _______ _______ _____ _____    ______ ____
ROOT
ATOM      1  C   ASP A   2     121.522 107.559 -38.638  0.00  0.00    +0.241 C 
ATOM      2  N   CYS A   3     121.218 106.439 -37.996  0.00  0.00    -0.296 N 
ATOM      3  H   CYS A   3     120.311 106.364 -37.493  0.00  0.00    +0.150 HD
ATOM      4  O   ASP A   2     122.583 107.703 -39.242  0.00  0.00    -0.273 OA
ENDROOT
BRANCH   1   5
ATOM      5  CA  ASP A   2     120.487 108.682 -38.584  0.00  0.00    +0.160 C 
BRANCH   5   7
ATOM      6  C   SER A   1     118.157 107.969 -38.566  0.00  0.00    +0.241 C 
ATOM      7  N   ASP A   2     119.259 108.292 -37.896  0.00  0.00    -0.297 N 
ATOM      8  H   ASP A   2     119.246 108.266 -36.856  0.00  0.00    +0.150 HD
ATOM      9  O   SER A   1     118.106 107.947 -39.797  0.00  0.00    -0.274 OA
BRANCH   6  10
ATOM     10  CA  SER A   1     116.921 107.624 -37.733  0.00  0.00    +0.174 C 
BRANCH  10  11
ATOM     11  N   SER A   1     115.721 108.051 -38.444  0.00  0.00    -0.236 NA
ATOM     12  H   SER A   1     115.670 107.916 -39.474  0.00  0.00    +0.142 HD
ENDBRANCH  10  11
BRANCH  10  13
ATOM     13  CB  SER A   1     116.867 106.125 -37.429  0.00  0.00    +0.163 C 
BRANCH  13  14
ATOM     14  OG  SER A   1     118.075 105.687 -36.834  0.00  0.00    -0.380 OA
ATOM     15  H   SER A   1     118.016 104.717 -36.647  0.00  0.00    +0.211 HD
ENDBRANCH  13  14
ENDBRANCH  10  13
ENDBRANCH   6  10
ENDBRANCH   5   7
BRANCH   5  16
ATOM     16  CB  ASP A   2     121.094 109.908 -37.903  0.00  0.00    +0.143 C 
BRANCH  16  17
ATOM     17  CG  ASP A   2     120.335 111.185 -38.226  0.00  0.00    +0.367 C 
ATOM     18  OD2 ASP A   2     120.243 112.064 -37.342  0.00  0.00    -0.246 OA
ATOM     19  OD1 ASP A   2     119.828 111.304 -39.361  0.00  0.00    -0.246 OA
ENDBRANCH  16  17
ENDBRANCH   5  16
ENDBRANCH   1   5
BRANCH   2  20
ATOM     20  CA  CYS A   3     122.141 105.314 -37.988  0.00  0.00    +0.160 C 
BRANCH  20  21
ATOM     21  C   CYS A   3     121.404 104.001 -38.147  0.00  0.00    +0.242 C 
ATOM     22  O   CYS A   3     120.180 103.944 -38.028  0.00  0.00    -0.273 OA
ATOM     23  N   THR A   4     122.166 102.944 -38.401  0.00  0.00    -0.296 N 
ATOM     24  H   THR A   4     123.184 103.080 -38.566  0.00  0.00    +0.150 HD
BRANCH  23  25
ATOM     25  CA  THR A   4     121.612 101.600 -38.454  0.00  0.00    +0.164 C 
BRANCH  25  26
ATOM     26  C   THR A   4     121.928 100.880 -37.151  0.00  0.00    +0.229 C 
ATOM     27  O   THR A   4     123.025 101.022 -36.608  0.00  0.00    -0.286 OA
ENDBRANCH  25  26
BRANCH  25  28
ATOM     28  CB  THR A   4     122.176 100.813 -39.635  0.00  0.00    +0.136 C 
ATOM     29  CG2 THR A   4     121.357  99.544 -39.867  0.00  0.00    +0.034 C 
BRANCH  28  30
ATOM     30  OG1 THR A   4     122.141 101.640 -40.806  0.00  0.00    -0.382 OA
ATOM     31  HG1 THR A   4     122.506 101.136 -41.576  0.00  0.00    +0.210 HD
ENDBRANCH  28  30
ENDBRANCH  25  28
ENDBRANCH  23  25
ENDBRANCH  20  21
BRANCH  20  32
ATOM     32  CB  CYS A   3     122.955 105.286 -36.689  0.00  0.00    +0.098 C 
ATOM     33  SG  CYS A   3     121.947 105.037 -35.200  0.00  0.00    -0.080 S 
ENDBRANCH  20  32
ENDBRANCH   2  20
TORSDOF 15
REMARK  Name = ../refined-set-2016/5aoi/5aoi_pocket.pdb
REMARK  101 active torsions:
REMARK  status: ('A' for Active; 'I' for Inactive)
REMARK    1  A    between atoms: _1  and  _3
REMARK    2  A    between atoms: _3  and  _4
REMARK    3  A    between atoms: _3  and  _6
REMARK    4  A    between atoms: _6  and  _7
REMARK    5  A    between atoms: _12  and  _13
REMARK    6  A    between atoms: _15  and  _17
REMARK    7  A    between atoms: _17  and  _18
REMARK    8  A    between atoms: _17  and  _20
REMARK    9  A    between atoms: _20  and  _21
REMARK   10  A    between atoms: _27  and  _29
REMARK   11  A    between atoms: _29  and  _30
REMARK   12  A    between atoms: _29  and  _32
REMARK   13  A    between atoms: _32  and  _33
REMARK   14  A    between atoms: _33  and  _34
REMARK   15  A    between atoms: _34  and  _35
REMARK   16  A    between atoms: _44  and  _46
REMARK   17  A    between atoms: _46  and  _47
REMARK   18  A    between atoms: _46  and  _49
REMARK   19  A    between atoms: _49  and  _50
REMARK   20  A    between atoms: _53  and  _55
REMARK   21  A    between atoms: _55  and  _56
REMARK   22  A    between atoms: _55  and  _58
REMARK   23  A    between atoms: _58  and  _59
REMARK   24  A    between atoms: _69  and  _71
REMARK   25  A    between atoms: _71  and  _72
REMARK   26  A    between atoms: _71  and  _74
REMARK   27  A    between atoms: _77  and  _79
REMARK   28  A    between atoms: _79  and  _80
REMARK   29  A    between atoms: _79  and  _82
REMARK   30  A    between atoms: _82  and  _83
REMARK   31  A    between atoms: _86  and  _88
REMARK   32  A    between atoms: _88  and  _89
REMARK   33  A    between atoms: _88  and  _91
REMARK   34  A    between atoms: _91  and  _92
REMARK   35  A    between atoms: _94  and  _96
REMARK   36  A    between atoms: _96  and  _97
REMARK   37  A    between atoms: _96  and  _99
REMARK   38  A    between atoms: _99  and  _100
REMARK   39  A    between atoms: _104  and  _105
REMARK   40  A    between atoms: _111  and  _112
REMARK   41  A    between atoms: _118  and  _119
REMARK   42  A    between atoms: _124  and  _126
REMARK   43  A    between atoms: _126  and  _127
REMARK   44  A    between atoms: _129  and  _131
REMARK   45  A    between atoms: _131  and  _132
REMARK   46  A    between atoms: _131  and  _134
REMARK   47  A    between atoms: _134  and  _135
REMARK   48  A    between atoms: _138  and  _140
REMARK   49  A    between atoms: _140  and  _141
REMARK   50  A    between atoms: _140  and  _143
REMARK   51  A    between atoms: _143  and  _144
REMARK   52  A    between atoms: _144  and  _145
REMARK   53  A    between atoms: _145  and  _146
REMARK   54  A    between atoms: _155  and  _157
REMARK   55  A    between atoms: _157  and  _158
REMARK   56  A    between atoms: _157  and  _160
REMARK   57  A    between atoms: _163  and  _165
REMARK   58  A    between atoms: _165  and  _166
REMARK   59  A    between atoms: _165  and  _168
REMARK   60  A    between atoms: _168  and  _169
REMARK   61  A    between atoms: _169  and  _170
REMARK   62  A    between atoms: _170  and  _171
REMARK   63  A    between atoms: _181  and  _182
REMARK   64  A    between atoms: _187  and  _189
REMARK   65  A    between atoms: _189  and  _190
REMARK   66  A    between atoms: _189  and  _192
REMARK   67  A    between atoms: _194  and  _196
REMARK   68  A    between atoms: _196  and  _197
REMARK   69  A    between atoms: _196  and  _199
REMARK   70  A    between atoms: _199  and  _200
REMARK   71  A    between atoms: _200  and  _201
REMARK   72  A    between atoms: _205  and  _206
REMARK   73  A    between atoms: _212  and  _213
REMARK   74  A    between atoms: _218  and  _220
REMARK   75  A    between atoms: _220  and  _221
REMARK   76  A    between atoms: _220  and  _223
REMARK   77  A    between atoms: _223  and  _224
REMARK   78  A    between atoms: _226  and  _228
REMARK   79  A    between atoms: _228  and  _229
REMARK   80  A    between atoms: _228  and  _231
REMARK   81  A    between atoms: _231  and  _232
REMARK   82  A    between atoms: _235  and  _237
REMARK   83  A    between atoms: _237  and  _238
REMARK   84  A    between atoms: _237  and  _240
REMARK   85  A    between atoms: _242  and  _244
REMARK   86  A    between atoms: _244  and  _245
REMARK   87  A    between atoms: _244  and  _247
REMARK   88  A    between atoms: _247  and  _248
REMARK   89  A    between atoms: _251  and  _253
REMARK   90  A    between atoms: _253  and  _254
REMARK   91  A    between atoms: _253  and  _256
REMARK   92  A    between atoms: _256  and  _257
REMARK   93  A    between atoms: _260  and  _262
REMARK   94  A    between atoms: _262  and  _263
REMARK   95  A    between atoms: _262  and  _265
REMARK   96  A    between atoms: _265  and  _266
REMARK   97  A    between atoms: _269  and  _271
REMARK   98  A    between atoms: _271  and  _272
REMARK   99  A    between atoms: _271  and  _274
REMARK  100  A    between atoms: _274  and  _275
REMARK  101  A    between atoms: _275  and  _276
REMARK                            x       y       z     vdW  Elec       q    Type
REMARK                         _______ _______ _______ _____ _____    ______ ____
ROOT
ATOM      1  CA  ILE A   1     122.088  95.774 -35.006  0.00  0.00    +0.133 C 
ENDROOT
BRANCH   1   2
ATOM      2  N   ILE A   1     122.087  97.233 -35.015  0.00  0.00    -0.239 NA
ATOM      3  H   ILE A   1     122.896  97.737 -34.599  0.00  0.00    +0.142 HD
ENDBRANCH   1   2
BRANCH   1   4
ATOM      4  C   ILE A   1     121.790  95.338 -33.585  0.00  0.00    +0.224 C 
ATOM      5  O   ILE A   1     122.298  95.951 -32.652  0.00  0.00    -0.287 OA
ENDBRANCH   1   4
BRANCH   1   6
ATOM      6  CB  ILE A   1     123.442  95.182 -35.437  0.00  0.00    +0.023 C 
ATOM      7  CG2 ILE A   1     123.364  93.630 -35.509  0.00  0.00    +0.002 C 
BRANCH   6   8
ATOM      8  CG1 ILE A   1     123.951  95.823 -36.730  0.00  0.00    +0.002 C 
ATOM      9  CD1 ILE A   1     123.148  95.473 -37.943  0.00  0.00    +0.000 C 
ENDBRANCH   6   8
ENDBRANCH   1   6
TORSDOF 4
REMARK  Name = ../refined-set-2016/5aoi/5aoi_pocket.pdb
REMARK  101 active torsions:
REMARK  status: ('A' for Active; 'I' for Inactive)
REMARK    1  A    between atoms: _1  and  _3
REMARK    2  A    between atoms: _3  and  _4
REMARK    3  A    between atoms: _3  and  _6
REMARK    4  A    between atoms: _6  and  _7
REMARK    5  A    between atoms: _12  and  _13
REMARK    6  A    between atoms: _15  and  _17
REMARK    7  A    between atoms: _17  and  _18
REMARK    8  A    between atoms: _17  and  _20
REMARK    9  A    between atoms: _20  and  _21
REMARK   10  A    between atoms: _27  and  _29
REMARK   11  A    between atoms: _29  and  _30
REMARK   12  A    between atoms: _29  and  _32
REMARK   13  A    between atoms: _32  and  _33
REMARK   14  A    between atoms: _33  and  _34
REMARK   15  A    between atoms: _34  and  _35
REMARK   16  A    between atoms: _44  and  _46
REMARK   17  A    between atoms: _46  and  _47
REMARK   18  A    between atoms: _46  and  _49
REMARK   19  A    between atoms: _49  and  _50
REMARK   20  A    between atoms: _53  and  _55
REMARK   21  A    between atoms: _55  and  _56
REMARK   22  A    between atoms: _55  and  _58
REMARK   23  A    between atoms: _58  and  _59
REMARK   24  A    between atoms: _69  and  _71
REMARK   25  A    between atoms: _71  and  _72
REMARK   26  A    between atoms: _71  and  _74
REMARK   27  A    between atoms: _77  and  _79
REMARK   28  A    between atoms: _79  and  _80
REMARK   29  A    between atoms: _79  and  _82
REMARK   30  A    between atoms: _82  and  _83
REMARK   31  A    between atoms: _86  and  _88
REMARK   32  A    between atoms: _88  and  _89
REMARK   33  A    between atoms: _88  and  _91
REMARK   34  A    between atoms: _91  and  _92
REMARK   35  A    between atoms: _94  and  _96
REMARK   36  A    between atoms: _96  and  _97
REMARK   37  A    between atoms: _96  and  _99
REMARK   38  A    between atoms: _99  and  _100
REMARK   39  A    between atoms: _104  and  _105
REMARK   40  A    between atoms: _111  and  _112
REMARK   41  A    between atoms: _118  and  _119
REMARK   42  A    between atoms: _124  and  _126
REMARK   43  A    between atoms: _126  and  _127
REMARK   44  A    between atoms: _129  and  _131
REMARK   45  A    between atoms: _131  and  _132
REMARK   46  A    between atoms: _131  and  _134
REMARK   47  A    between atoms: _134  and  _135
REMARK   48  A    between atoms: _138  and  _140
REMARK   49  A    between atoms: _140  and  _141
REMARK   50  A    between atoms: _140  and  _143
REMARK   51  A    between atoms: _143  and  _144
REMARK   52  A    between atoms: _144  and  _145
REMARK   53  A    between atoms: _145  and  _146
REMARK   54  A    between atoms: _155  and  _157
REMARK   55  A    between atoms: _157  and  _158
REMARK   56  A    between atoms: _157  and  _160
REMARK   57  A    between atoms: _163  and  _165
REMARK   58  A    between atoms: _165  and  _166
REMARK   59  A    between atoms: _165  and  _168
REMARK   60  A    between atoms: _168  and  _169
REMARK   61  A    between atoms: _169  and  _170
REMARK   62  A    between atoms: _170  and  _171
REMARK   63  A    between atoms: _181  and  _182
REMARK   64  A    between atoms: _187  and  _189
REMARK   65  A    between atoms: _189  and  _190
REMARK   66  A    between atoms: _189  and  _192
REMARK   67  A    between atoms: _194  and  _196
REMARK   68  A    between atoms: _196  and  _197
REMARK   69  A    between atoms: _196  and  _199
REMARK   70  A    between atoms: _199  and  _200
REMARK   71  A    between atoms: _200  and  _201
REMARK   72  A    between atoms: _205  and  _206
REMARK   73  A    between atoms: _212  and  _213
REMARK   74  A    between atoms: _218  and  _220
REMARK   75  A    between atoms: _220  and  _221
REMARK   76  A    between atoms: _220  and  _223
REMARK   77  A    between atoms: _223  and  _224
REMARK   78  A    between atoms: _226  and  _228
REMARK   79  A    between atoms: _228  and  _229
REMARK   80  A    between atoms: _228  and  _231
REMARK   81  A    between atoms: _231  and  _232
REMARK   82  A    between atoms: _235  and  _237
REMARK   83  A    between atoms: _237  and  _238
REMARK   84  A    between atoms: _237  and  _240
REMARK   85  A    between atoms: _242  and  _244
REMARK   86  A    between atoms: _244  and  _245
REMARK   87  A    between atoms: _244  and  _247
REMARK   88  A    between atoms: _247  and  _248
REMARK   89  A    between atoms: _251  and  _253
REMARK   90  A    between atoms: _253  and  _254
REMARK   91  A    between atoms: _253  and  _256
REMARK   92  A    between atoms: _256  and  _257
REMARK   93  A    between atoms: _260  and  _262
REMARK   94  A    between atoms: _262  and  _263
REMARK   95  A    between atoms: _262  and  _265
REMARK   96  A    between atoms: _265  and  _266
REMARK   97  A    between atoms: _269  and  _271
REMARK   98  A    between atoms: _271  and  _272
REMARK   99  A    between atoms: _271  and  _274
REMARK  100  A    between atoms: _274  and  _275
REMARK  101  A    between atoms: _275  and  _276
REMARK                            x       y       z     vdW  Elec       q    Type
REMARK                         _______ _______ _______ _____ _____    ______ ____
ROOT
ATOM      1  C   LEU A   1     133.076  95.965 -43.174  0.00  0.00    +0.238 C 
ATOM      2  O   LEU A   1     134.295  96.148 -43.304  0.00  0.00    -0.274 OA
ATOM      3  N   GLU A   2     132.355  95.213 -44.007  0.00  0.00    -0.298 N 
ATOM      4  H   GLU A   2     131.321  95.202 -43.897  0.00  0.00    +0.150 HD
ENDROOT
BRANCH   1   5
ATOM      5  CA  LEU A   1     132.341  96.583 -41.991  0.00  0.00    +0.145 C 
BRANCH   5   6
ATOM      6  N   LEU A   1     133.134  96.240 -40.834  0.00  0.00    -0.238 NA
ATOM      7  H   LEU A   1     133.897  96.884 -40.544  0.00  0.00    +0.142 HD
ENDBRANCH   5   6
BRANCH   5   8
ATOM      8  CB  LEU A   1     132.216  98.110 -42.130  0.00  0.00    +0.026 C 
BRANCH   8   9
ATOM      9  CG  LEU A   1     131.210  98.557 -43.186  0.00  0.00    +0.002 C 
ATOM     10  CD2 LEU A   1     129.801  98.265 -42.683  0.00  0.00    +0.000 C 
ATOM     11  CD1 LEU A   1     131.400 100.062 -43.493  0.00  0.00    +0.000 C 
ENDBRANCH   8   9
ENDBRANCH   5   8
ENDBRANCH   1   5
BRANCH   3  12
ATOM     12  CA  GLU A   2     132.953  94.404 -45.068  0.00  0.00    +0.137 C 
BRANCH  12  13
ATOM     13  C   GLU A   2     132.259  94.634 -46.398  0.00  0.00    +0.227 C 
ATOM     14  O   GLU A   2     131.058  94.876 -46.429  0.00  0.00    -0.286 OA
ENDBRANCH  12  13
BRANCH  12  15
ATOM     15  CB  GLU A   2     132.848  92.896 -44.759  0.00  0.00    +0.039 C 
BRANCH  15  16
ATOM     16  CG  GLU A   2     133.608  92.397 -43.555  0.00  0.00    +0.116 C 
BRANCH  16  17
ATOM     17  CD  GLU A   2     133.421  90.887 -43.346  0.00  0.00    +0.365 C 
ATOM     18  OE2 GLU A   2     134.161  90.310 -42.523  0.00  0.00    -0.246 OA
ATOM     19  OE1 GLU A   2     132.550  90.274 -44.014  0.00  0.00    -0.246 OA
ENDBRANCH  16  17
ENDBRANCH  15  16
ENDBRANCH  12  15
ENDBRANCH   3  12
TORSDOF 9
REMARK  Name = ../refined-set-2016/5aoi/5aoi_pocket.pdb
REMARK  101 active torsions:
REMARK  status: ('A' for Active; 'I' for Inactive)
REMARK    1  A    between atoms: _1  and  _3
REMARK    2  A    between atoms: _3  and  _4
REMARK    3  A    between atoms: _3  and  _6
REMARK    4  A    between atoms: _6  and  _7
REMARK    5  A    between atoms: _12  and  _13
REMARK    6  A    between atoms: _15  and  _17
REMARK    7  A    between atoms: _17  and  _18
REMARK    8  A    between atoms: _17  and  _20
REMARK    9  A    between atoms: _20  and  _21
REMARK   10  A    between atoms: _27  and  _29
REMARK   11  A    between atoms: _29  and  _30
REMARK   12  A    between atoms: _29  and  _32
REMARK   13  A    between atoms: _32  and  _33
REMARK   14  A    between atoms: _33  and  _34
REMARK   15  A    between atoms: _34  and  _35
REMARK   16  A    between atoms: _44  and  _46
REMARK   17  A    between atoms: _46  and  _47
REMARK   18  A    between atoms: _46  and  _49
REMARK   19  A    between atoms: _49  and  _50
REMARK   20  A    between atoms: _53  and  _55
REMARK   21  A    between atoms: _55  and  _56
REMARK   22  A    between atoms: _55  and  _58
REMARK   23  A    between atoms: _58  and  _59
REMARK   24  A    between atoms: _69  and  _71
REMARK   25  A    between atoms: _71  and  _72
REMARK   26  A    between atoms: _71  and  _74
REMARK   27  A    between atoms: _77  and  _79
REMARK   28  A    between atoms: _79  and  _80
REMARK   29  A    between atoms: _79  and  _82
REMARK   30  A    between atoms: _82  and  _83
REMARK   31  A    between atoms: _86  and  _88
REMARK   32  A    between atoms: _88  and  _89
REMARK   33  A    between atoms: _88  and  _91
REMARK   34  A    between atoms: _91  and  _92
REMARK   35  A    between atoms: _94  and  _96
REMARK   36  A    between atoms: _96  and  _97
REMARK   37  A    between atoms: _96  and  _99
REMARK   38  A    between atoms: _99  and  _100
REMARK   39  A    between atoms: _104  and  _105
REMARK   40  A    between atoms: _111  and  _112
REMARK   41  A    between atoms: _118  and  _119
REMARK   42  A    between atoms: _124  and  _126
REMARK   43  A    between atoms: _126  and  _127
REMARK   44  A    between atoms: _129  and  _131
REMARK   45  A    between atoms: _131  and  _132
REMARK   46  A    between atoms: _131  and  _134
REMARK   47  A    between atoms: _134  and  _135
REMARK   48  A    between atoms: _138  and  _140
REMARK   49  A    between atoms: _140  and  _141
REMARK   50  A    between atoms: _140  and  _143
REMARK   51  A    between atoms: _143  and  _144
REMARK   52  A    between atoms: _144  and  _145
REMARK   53  A    between atoms: _145  and  _146
REMARK   54  A    between atoms: _155  and  _157
REMARK   55  A    between atoms: _157  and  _158
REMARK   56  A    between atoms: _157  and  _160
REMARK   57  A    between atoms: _163  and  _165
REMARK   58  A    between atoms: _165  and  _166
REMARK   59  A    between atoms: _165  and  _168
REMARK   60  A    between atoms: _168  and  _169
REMARK   61  A    between atoms: _169  and  _170
REMARK   62  A    between atoms: _170  and  _171
REMARK   63  A    between atoms: _181  and  _182
REMARK   64  A    between atoms: _187  and  _189
REMARK   65  A    between atoms: _189  and  _190
REMARK   66  A    between atoms: _189  and  _192
REMARK   67  A    between atoms: _194  and  _196
REMARK   68  A    between atoms: _196  and  _197
REMARK   69  A    between atoms: _196  and  _199
REMARK   70  A    between atoms: _199  and  _200
REMARK   71  A    between atoms: _200  and  _201
REMARK   72  A    between atoms: _205  and  _206
REMARK   73  A    between atoms: _212  and  _213
REMARK   74  A    between atoms: _218  and  _220
REMARK   75  A    between atoms: _220  and  _221
REMARK   76  A    between atoms: _220  and  _223
REMARK   77  A    between atoms: _223  and  _224
REMARK   78  A    between atoms: _226  and  _228
REMARK   79  A    between atoms: _228  and  _229
REMARK   80  A    between atoms: _228  and  _231
REMARK   81  A    between atoms: _231  and  _232
REMARK   82  A    between atoms: _235  and  _237
REMARK   83  A    between atoms: _237  and  _238
REMARK   84  A    between atoms: _237  and  _240
REMARK   85  A    between atoms: _242  and  _244
REMARK   86  A    between atoms: _244  and  _245
REMARK   87  A    between atoms: _244  and  _247
REMARK   88  A    between atoms: _247  and  _248
REMARK   89  A    between atoms: _251  and  _253
REMARK   90  A    between atoms: _253  and  _254
REMARK   91  A    between atoms: _253  and  _256
REMARK   92  A    between atoms: _256  and  _257
REMARK   93  A    between atoms: _260  and  _262
REMARK   94  A    between atoms: _262  and  _263
REMARK   95  A    between atoms: _262  and  _265
REMARK   96  A    between atoms: _265  and  _266
REMARK   97  A    between atoms: _269  and  _271
REMARK   98  A    between atoms: _271  and  _272
REMARK   99  A    between atoms: _271  and  _274
REMARK  100  A    between atoms: _274  and  _275
REMARK  101  A    between atoms: _275  and  _276
REMARK                            x       y       z     vdW  Elec       q    Type
REMARK                         _______ _______ _______ _____ _____    ______ ____
ROOT
ATOM      1  O   HOH     1     124.394 104.003 -40.499  0.00  0.00    +0.000 OA
ENDROOT
TORSDOF 0
REMARK  Name = ../refined-set-2016/5aoi/5aoi_pocket.pdb
REMARK  101 active torsions:
REMARK  status: ('A' for Active; 'I' for Inactive)
REMARK    1  A    between atoms: _1  and  _3
REMARK    2  A    between atoms: _3  and  _4
REMARK    3  A    between atoms: _3  and  _6
REMARK    4  A    between atoms: _6  and  _7
REMARK    5  A    between atoms: _12  and  _13
REMARK    6  A    between atoms: _15  and  _17
REMARK    7  A    between atoms: _17  and  _18
REMARK    8  A    between atoms: _17  and  _20
REMARK    9  A    between atoms: _20  and  _21
REMARK   10  A    between atoms: _27  and  _29
REMARK   11  A    between atoms: _29  and  _30
REMARK   12  A    between atoms: _29  and  _32
REMARK   13  A    between atoms: _32  and  _33
REMARK   14  A    between atoms: _33  and  _34
REMARK   15  A    between atoms: _34  and  _35
REMARK   16  A    between atoms: _44  and  _46
REMARK   17  A    between atoms: _46  and  _47
REMARK   18  A    between atoms: _46  and  _49
REMARK   19  A    between atoms: _49  and  _50
REMARK   20  A    between atoms: _53  and  _55
REMARK   21  A    between atoms: _55  and  _56
REMARK   22  A    between atoms: _55  and  _58
REMARK   23  A    between atoms: _58  and  _59
REMARK   24  A    between atoms: _69  and  _71
REMARK   25  A    between atoms: _71  and  _72
REMARK   26  A    between atoms: _71  and  _74
REMARK   27  A    between atoms: _77  and  _79
REMARK   28  A    between atoms: _79  and  _80
REMARK   29  A    between atoms: _79  and  _82
REMARK   30  A    between atoms: _82  and  _83
REMARK   31  A    between atoms: _86  and  _88
REMARK   32  A    between atoms: _88  and  _89
REMARK   33  A    between atoms: _88  and  _91
REMARK   34  A    between atoms: _91  and  _92
REMARK   35  A    between atoms: _94  and  _96
REMARK   36  A    between atoms: _96  and  _97
REMARK   37  A    between atoms: _96  and  _99
REMARK   38  A    between atoms: _99  and  _100
REMARK   39  A    between atoms: _104  and  _105
REMARK   40  A    between atoms: _111  and  _112
REMARK   41  A    between atoms: _118  and  _119
REMARK   42  A    between atoms: _124  and  _126
REMARK   43  A    between atoms: _126  and  _127
REMARK   44  A    between atoms: _129  and  _131
REMARK   45  A    between atoms: _131  and  _132
REMARK   46  A    between atoms: _131  and  _134
REMARK   47  A    between atoms: _134  and  _135
REMARK   48  A    between atoms: _138  and  _140
REMARK   49  A    between atoms: _140  and  _141
REMARK   50  A    between atoms: _140  and  _143
REMARK   51  A    between atoms: _143  and  _144
REMARK   52  A    between atoms: _144  and  _145
REMARK   53  A    between atoms: _145  and  _146
REMARK   54  A    between atoms: _155  and  _157
REMARK   55  A    between atoms: _157  and  _158
REMARK   56  A    between atoms: _157  and  _160
REMARK   57  A    between atoms: _163  and  _165
REMARK   58  A    between atoms: _165  and  _166
REMARK   59  A    between atoms: _165  and  _168
REMARK   60  A    between atoms: _168  and  _169
REMARK   61  A    between atoms: _169  and  _170
REMARK   62  A    between atoms: _170  and  _171
REMARK   63  A    between atoms: _181  and  _182
REMARK   64  A    between atoms: _187  and  _189
REMARK   65  A    between atoms: _189  and  _190
REMARK   66  A    between atoms: _189  and  _192
REMARK   67  A    between atoms: _194  and  _196
REMARK   68  A    between atoms: _196  and  _197
REMARK   69  A    between atoms: _196  and  _199
REMARK   70  A    between atoms: _199  and  _200
REMARK   71  A    between atoms: _200  and  _201
REMARK   72  A    between atoms: _205  and  _206
REMARK   73  A    between atoms: _212  and  _213
REMARK   74  A    between atoms: _218  and  _220
REMARK   75  A    between atoms: _220  and  _221
REMARK   76  A    between atoms: _220  and  _223
REMARK   77  A    between atoms: _223  and  _224
REMARK   78  A    between atoms: _226  and  _228
REMARK   79  A    between atoms: _228  and  _229
REMARK   80  A    between atoms: _228  and  _231
REMARK   81  A    between atoms: _231  and  _232
REMARK   82  A    between atoms: _235  and  _237
REMARK   83  A    between atoms: _237  and  _238
REMARK   84  A    between atoms: _237  and  _240
REMARK   85  A    between atoms: _242  and  _244
REMARK   86  A    between atoms: _244  and  _245
REMARK   87  A    between atoms: _244  and  _247
REMARK   88  A    between atoms: _247  and  _248
REMARK   89  A    between atoms: _251  and  _253
REMARK   90  A    between atoms: _253  and  _254
REMARK   91  A    between atoms: _253  and  _256
REMARK   92  A    between atoms: _256  and  _257
REMARK   93  A    between atoms: _260  and  _262
REMARK   94  A    between atoms: _262  and  _263
REMARK   95  A    between atoms: _262  and  _265
REMARK   96  A    between atoms: _265  and  _266
REMARK   97  A    between atoms: _269  and  _271
REMARK   98  A    between atoms: _271  and  _272
REMARK   99  A    between atoms: _271  and  _274
REMARK  100  A    between atoms: _274  and  _275
REMARK  101  A    between atoms: _275  and  _276
REMARK                            x       y       z     vdW  Elec       q    Type
REMARK                         _______ _______ _______ _____ _____    ______ ____
ROOT
ATOM      1  O   HOH     1     124.965 106.507 -40.484  0.00  0.00    +0.000 OA
ENDROOT
TORSDOF 0
REMARK  Name = ../refined-set-2016/5aoi/5aoi_pocket.pdb
REMARK  101 active torsions:
REMARK  status: ('A' for Active; 'I' for Inactive)
REMARK    1  A    between atoms: _1  and  _3
REMARK    2  A    between atoms: _3  and  _4
REMARK    3  A    between atoms: _3  and  _6
REMARK    4  A    between atoms: _6  and  _7
REMARK    5  A    between atoms: _12  and  _13
REMARK    6  A    between atoms: _15  and  _17
REMARK    7  A    between atoms: _17  and  _18
REMARK    8  A    between atoms: _17  and  _20
REMARK    9  A    between atoms: _20  and  _21
REMARK   10  A    between atoms: _27  and  _29
REMARK   11  A    between atoms: _29  and  _30
REMARK   12  A    between atoms: _29  and  _32
REMARK   13  A    between atoms: _32  and  _33
REMARK   14  A    between atoms: _33  and  _34
REMARK   15  A    between atoms: _34  and  _35
REMARK   16  A    between atoms: _44  and  _46
REMARK   17  A    between atoms: _46  and  _47
REMARK   18  A    between atoms: _46  and  _49
REMARK   19  A    between atoms: _49  and  _50
REMARK   20  A    between atoms: _53  and  _55
REMARK   21  A    between atoms: _55  and  _56
REMARK   22  A    between atoms: _55  and  _58
REMARK   23  A    between atoms: _58  and  _59
REMARK   24  A    between atoms: _69  and  _71
REMARK   25  A    between atoms: _71  and  _72
REMARK   26  A    between atoms: _71  and  _74
REMARK   27  A    between atoms: _77  and  _79
REMARK   28  A    between atoms: _79  and  _80
REMARK   29  A    between atoms: _79  and  _82
REMARK   30  A    between atoms: _82  and  _83
REMARK   31  A    between atoms: _86  and  _88
REMARK   32  A    between atoms: _88  and  _89
REMARK   33  A    between atoms: _88  and  _91
REMARK   34  A    between atoms: _91  and  _92
REMARK   35  A    between atoms: _94  and  _96
REMARK   36  A    between atoms: _96  and  _97
REMARK   37  A    between atoms: _96  and  _99
REMARK   38  A    between atoms: _99  and  _100
REMARK   39  A    between atoms: _104  and  _105
REMARK   40  A    between atoms: _111  and  _112
REMARK   41  A    between atoms: _118  and  _119
REMARK   42  A    between atoms: _124  and  _126
REMARK   43  A    between atoms: _126  and  _127
REMARK   44  A    between atoms: _129  and  _131
REMARK   45  A    between atoms: _131  and  _132
REMARK   46  A    between atoms: _131  and  _134
REMARK   47  A    between atoms: _134  and  _135
REMARK   48  A    between atoms: _138  and  _140
REMARK   49  A    between atoms: _140  and  _141
REMARK   50  A    between atoms: _140  and  _143
REMARK   51  A    between atoms: _143  and  _144
REMARK   52  A    between atoms: _144  and  _145
REMARK   53  A    between atoms: _145  and  _146
REMARK   54  A    between atoms: _155  and  _157
REMARK   55  A    between atoms: _157  and  _158
REMARK   56  A    between atoms: _157  and  _160
REMARK   57  A    between atoms: _163  and  _165
REMARK   58  A    between atoms: _165  and  _166
REMARK   59  A    between atoms: _165  and  _168
REMARK   60  A    between atoms: _168  and  _169
REMARK   61  A    between atoms: _169  and  _170
REMARK   62  A    between atoms: _170  and  _171
REMARK   63  A    between atoms: _181  and  _182
REMARK   64  A    between atoms: _187  and  _189
REMARK   65  A    between atoms: _189  and  _190
REMARK   66  A    between atoms: _189  and  _192
REMARK   67  A    between atoms: _194  and  _196
REMARK   68  A    between atoms: _196  and  _197
REMARK   69  A    between atoms: _196  and  _199
REMARK   70  A    between atoms: _199  and  _200
REMARK   71  A    between atoms: _200  and  _201
REMARK   72  A    between atoms: _205  and  _206
REMARK   73  A    between atoms: _212  and  _213
REMARK   74  A    between atoms: _218  and  _220
REMARK   75  A    between atoms: _220  and  _221
REMARK   76  A    between atoms: _220  and  _223
REMARK   77  A    between atoms: _223  and  _224
REMARK   78  A    between atoms: _226  and  _228
REMARK   79  A    between atoms: _228  and  _229
REMARK   80  A    between atoms: _228  and  _231
REMARK   81  A    between atoms: _231  and  _232
REMARK   82  A    between atoms: _235  and  _237
REMARK   83  A    between atoms: _237  and  _238
REMARK   84  A    between atoms: _237  and  _240
REMARK   85  A    between atoms: _242  and  _244
REMARK   86  A    between atoms: _244  and  _245
REMARK   87  A    between atoms: _244  and  _247
REMARK   88  A    between atoms: _247  and  _248
REMARK   89  A    between atoms: _251  and  _253
REMARK   90  A    between atoms: _253  and  _254
REMARK   91  A    between atoms: _253  and  _256
REMARK   92  A    between atoms: _256  and  _257
REMARK   93  A    between atoms: _260  and  _262
REMARK   94  A    between atoms: _262  and  _263
REMARK   95  A    between atoms: _262  and  _265
REMARK   96  A    between atoms: _265  and  _266
REMARK   97  A    between atoms: _269  and  _271
REMARK   98  A    between atoms: _271  and  _272
REMARK   99  A    between atoms: _271  and  _274
REMARK  100  A    between atoms: _274  and  _275
REMARK  101  A    between atoms: _275  and  _276
REMARK                            x       y       z     vdW  Elec       q    Type
REMARK                         _______ _______ _______ _____ _____    ______ ____
ROOT
ATOM      1  O   HOH     1     126.081 109.513 -44.307  0.00  0.00    +0.000 OA
ENDROOT
TORSDOF 0
REMARK  Name = ../refined-set-2016/5aoi/5aoi_pocket.pdb
REMARK  101 active torsions:
REMARK  status: ('A' for Active; 'I' for Inactive)
REMARK    1  A    between atoms: _1  and  _3
REMARK    2  A    between atoms: _3  and  _4
REMARK    3  A    between atoms: _3  and  _6
REMARK    4  A    between atoms: _6  and  _7
REMARK    5  A    between atoms: _12  and  _13
REMARK    6  A    between atoms: _15  and  _17
REMARK    7  A    between atoms: _17  and  _18
REMARK    8  A    between atoms: _17  and  _20
REMARK    9  A    between atoms: _20  and  _21
REMARK   10  A    between atoms: _27  and  _29
REMARK   11  A    between atoms: _29  and  _30
REMARK   12  A    between atoms: _29  and  _32
REMARK   13  A    between atoms: _32  and  _33
REMARK   14  A    between atoms: _33  and  _34
REMARK   15  A    between atoms: _34  and  _35
REMARK   16  A    between atoms: _44  and  _46
REMARK   17  A    between atoms: _46  and  _47
REMARK   18  A    between atoms: _46  and  _49
REMARK   19  A    between atoms: _49  and  _50
REMARK   20  A    between atoms: _53  and  _55
REMARK   21  A    between atoms: _55  and  _56
REMARK   22  A    between atoms: _55  and  _58
REMARK   23  A    between atoms: _58  and  _59
REMARK   24  A    between atoms: _69  and  _71
REMARK   25  A    between atoms: _71  and  _72
REMARK   26  A    between atoms: _71  and  _74
REMARK   27  A    between atoms: _77  and  _79
REMARK   28  A    between atoms: _79  and  _80
REMARK   29  A    between atoms: _79  and  _82
REMARK   30  A    between atoms: _82  and  _83
REMARK   31  A    between atoms: _86  and  _88
REMARK   32  A    between atoms: _88  and  _89
REMARK   33  A    between atoms: _88  and  _91
REMARK   34  A    between atoms: _91  and  _92
REMARK   35  A    between atoms: _94  and  _96
REMARK   36  A    between atoms: _96  and  _97
REMARK   37  A    between atoms: _96  and  _99
REMARK   38  A    between atoms: _99  and  _100
REMARK   39  A    between atoms: _104  and  _105
REMARK   40  A    between atoms: _111  and  _112
REMARK   41  A    between atoms: _118  and  _119
REMARK   42  A    between atoms: _124  and  _126
REMARK   43  A    between atoms: _126  and  _127
REMARK   44  A    between atoms: _129  and  _131
REMARK   45  A    between atoms: _131  and  _132
REMARK   46  A    between atoms: _131  and  _134
REMARK   47  A    between atoms: _134  and  _135
REMARK   48  A    between atoms: _138  and  _140
REMARK   49  A    between atoms: _140  and  _141
REMARK   50  A    between atoms: _140  and  _143
REMARK   51  A    between atoms: _143  and  _144
REMARK   52  A    between atoms: _144  and  _145
REMARK   53  A    between atoms: _145  and  _146
REMARK   54  A    between atoms: _155  and  _157
REMARK   55  A    between atoms: _157  and  _158
REMARK   56  A    between atoms: _157  and  _160
REMARK   57  A    between atoms: _163  and  _165
REMARK   58  A    between atoms: _165  and  _166
REMARK   59  A    between atoms: _165  and  _168
REMARK   60  A    between atoms: _168  and  _169
REMARK   61  A    between atoms: _169  and  _170
REMARK   62  A    between atoms: _170  and  _171
REMARK   63  A    between atoms: _181  and  _182
REMARK   64  A    between atoms: _187  and  _189
REMARK   65  A    between atoms: _189  and  _190
REMARK   66  A    between atoms: _189  and  _192
REMARK   67  A    between atoms: _194  and  _196
REMARK   68  A    between atoms: _196  and  _197
REMARK   69  A    between atoms: _196  and  _199
REMARK   70  A    between atoms: _199  and  _200
REMARK   71  A    between atoms: _200  and  _201
REMARK   72  A    between atoms: _205  and  _206
REMARK   73  A    between atoms: _212  and  _213
REMARK   74  A    between atoms: _218  and  _220
REMARK   75  A    between atoms: _220  and  _221
REMARK   76  A    between atoms: _220  and  _223
REMARK   77  A    between atoms: _223  and  _224
REMARK   78  A    between atoms: _226  and  _228
REMARK   79  A    between atoms: _228  and  _229
REMARK   80  A    between atoms: _228  and  _231
REMARK   81  A    between atoms: _231  and  _232
REMARK   82  A    between atoms: _235  and  _237
REMARK   83  A    between atoms: _237  and  _238
REMARK   84  A    between atoms: _237  and  _240
REMARK   85  A    between atoms: _242  and  _244
REMARK   86  A    between atoms: _244  and  _245
REMARK   87  A    between atoms: _244  and  _247
REMARK   88  A    between atoms: _247  and  _248
REMARK   89  A    between atoms: _251  and  _253
REMARK   90  A    between atoms: _253  and  _254
REMARK   91  A    between atoms: _253  and  _256
REMARK   92  A    between atoms: _256  and  _257
REMARK   93  A    between atoms: _260  and  _262
REMARK   94  A    between atoms: _262  and  _263
REMARK   95  A    between atoms: _262  and  _265
REMARK   96  A    between atoms: _265  and  _266
REMARK   97  A    between atoms: _269  and  _271
REMARK   98  A    between atoms: _271  and  _272
REMARK   99  A    between atoms: _271  and  _274
REMARK  100  A    between atoms: _274  and  _275
REMARK  101  A    between atoms: _275  and  _276
REMARK                            x       y       z     vdW  Elec       q    Type
REMARK                         _______ _______ _______ _____ _____    ______ ____
ROOT
ATOM      1  O   HOH     1     125.918 109.646 -46.603  0.00  0.00    +0.000 OA
ENDROOT
TORSDOF 0
REMARK  Name = ../refined-set-2016/5aoi/5aoi_pocket.pdb
REMARK  101 active torsions:
REMARK  status: ('A' for Active; 'I' for Inactive)
REMARK    1  A    between atoms: _1  and  _3
REMARK    2  A    between atoms: _3  and  _4
REMARK    3  A    between atoms: _3  and  _6
REMARK    4  A    between atoms: _6  and  _7
REMARK    5  A    between atoms: _12  and  _13
REMARK    6  A    between atoms: _15  and  _17
REMARK    7  A    between atoms: _17  and  _18
REMARK    8  A    between atoms: _17  and  _20
REMARK    9  A    between atoms: _20  and  _21
REMARK   10  A    between atoms: _27  and  _29
REMARK   11  A    between atoms: _29  and  _30
REMARK   12  A    between atoms: _29  and  _32
REMARK   13  A    between atoms: _32  and  _33
REMARK   14  A    between atoms: _33  and  _34
REMARK   15  A    between atoms: _34  and  _35
REMARK   16  A    between atoms: _44  and  _46
REMARK   17  A    between atoms: _46  and  _47
REMARK   18  A    between atoms: _46  and  _49
REMARK   19  A    between atoms: _49  and  _50
REMARK   20  A    between atoms: _53  and  _55
REMARK   21  A    between atoms: _55  and  _56
REMARK   22  A    between atoms: _55  and  _58
REMARK   23  A    between atoms: _58  and  _59
REMARK   24  A    between atoms: _69  and  _71
REMARK   25  A    between atoms: _71  and  _72
REMARK   26  A    between atoms: _71  and  _74
REMARK   27  A    between atoms: _77  and  _79
REMARK   28  A    between atoms: _79  and  _80
REMARK   29  A    between atoms: _79  and  _82
REMARK   30  A    between atoms: _82  and  _83
REMARK   31  A    between atoms: _86  and  _88
REMARK   32  A    between atoms: _88  and  _89
REMARK   33  A    between atoms: _88  and  _91
REMARK   34  A    between atoms: _91  and  _92
REMARK   35  A    between atoms: _94  and  _96
REMARK   36  A    between atoms: _96  and  _97
REMARK   37  A    between atoms: _96  and  _99
REMARK   38  A    between atoms: _99  and  _100
REMARK   39  A    between atoms: _104  and  _105
REMARK   40  A    between atoms: _111  and  _112
REMARK   41  A    between atoms: _118  and  _119
REMARK   42  A    between atoms: _124  and  _126
REMARK   43  A    between atoms: _126  and  _127
REMARK   44  A    between atoms: _129  and  _131
REMARK   45  A    between atoms: _131  and  _132
REMARK   46  A    between atoms: _131  and  _134
REMARK   47  A    between atoms: _134  and  _135
REMARK   48  A    between atoms: _138  and  _140
REMARK   49  A    between atoms: _140  and  _141
REMARK   50  A    between atoms: _140  and  _143
REMARK   51  A    between atoms: _143  and  _144
REMARK   52  A    between atoms: _144  and  _145
REMARK   53  A    between atoms: _145  and  _146
REMARK   54  A    between atoms: _155  and  _157
REMARK   55  A    between atoms: _157  and  _158
REMARK   56  A    between atoms: _157  and  _160
REMARK   57  A    between atoms: _163  and  _165
REMARK   58  A    between atoms: _165  and  _166
REMARK   59  A    between atoms: _165  and  _168
REMARK   60  A    between atoms: _168  and  _169
REMARK   61  A    between atoms: _169  and  _170
REMARK   62  A    between atoms: _170  and  _171
REMARK   63  A    between atoms: _181  and  _182
REMARK   64  A    between atoms: _187  and  _189
REMARK   65  A    between atoms: _189  and  _190
REMARK   66  A    between atoms: _189  and  _192
REMARK   67  A    between atoms: _194  and  _196
REMARK   68  A    between atoms: _196  and  _197
REMARK   69  A    between atoms: _196  and  _199
REMARK   70  A    between atoms: _199  and  _200
REMARK   71  A    between atoms: _200  and  _201
REMARK   72  A    between atoms: _205  and  _206
REMARK   73  A    between atoms: _212  and  _213
REMARK   74  A    between atoms: _218  and  _220
REMARK   75  A    between atoms: _220  and  _221
REMARK   76  A    between atoms: _220  and  _223
REMARK   77  A    between atoms: _223  and  _224
REMARK   78  A    between atoms: _226  and  _228
REMARK   79  A    between atoms: _228  and  _229
REMARK   80  A    between atoms: _228  and  _231
REMARK   81  A    between atoms: _231  and  _232
REMARK   82  A    between atoms: _235  and  _237
REMARK   83  A    between atoms: _237  and  _238
REMARK   84  A    between atoms: _237  and  _240
REMARK   85  A    between atoms: _242  and  _244
REMARK   86  A    between atoms: _244  and  _245
REMARK   87  A    between atoms: _244  and  _247
REMARK   88  A    between atoms: _247  and  _248
REMARK   89  A    between atoms: _251  and  _253
REMARK   90  A    between atoms: _253  and  _254
REMARK   91  A    between atoms: _253  and  _256
REMARK   92  A    between atoms: _256  and  _257
REMARK   93  A    between atoms: _260  and  _262
REMARK   94  A    between atoms: _262  and  _263
REMARK   95  A    between atoms: _262  and  _265
REMARK   96  A    between atoms: _265  and  _266
REMARK   97  A    between atoms: _269  and  _271
REMARK   98  A    between atoms: _271  and  _272
REMARK   99  A    between atoms: _271  and  _274
REMARK  100  A    between atoms: _274  and  _275
REMARK  101  A    between atoms: _275  and  _276
REMARK                            x       y       z     vdW  Elec       q    Type
REMARK                         _______ _______ _______ _____ _____    ______ ____
ROOT
ATOM      1  O   HOH     1     127.109 109.073 -49.395  0.00  0.00    +0.000 OA
ENDROOT
TORSDOF 0
REMARK  Name = ../refined-set-2016/5aoi/5aoi_pocket.pdb
REMARK  101 active torsions:
REMARK  status: ('A' for Active; 'I' for Inactive)
REMARK    1  A    between atoms: _1  and  _3
REMARK    2  A    between atoms: _3  and  _4
REMARK    3  A    between atoms: _3  and  _6
REMARK    4  A    between atoms: _6  and  _7
REMARK    5  A    between atoms: _12  and  _13
REMARK    6  A    between atoms: _15  and  _17
REMARK    7  A    between atoms: _17  and  _18
REMARK    8  A    between atoms: _17  and  _20
REMARK    9  A    between atoms: _20  and  _21
REMARK   10  A    between atoms: _27  and  _29
REMARK   11  A    between atoms: _29  and  _30
REMARK   12  A    between atoms: _29  and  _32
REMARK   13  A    between atoms: _32  and  _33
REMARK   14  A    between atoms: _33  and  _34
REMARK   15  A    between atoms: _34  and  _35
REMARK   16  A    between atoms: _44  and  _46
REMARK   17  A    between atoms: _46  and  _47
REMARK   18  A    between atoms: _46  and  _49
REMARK   19  A    between atoms: _49  and  _50
REMARK   20  A    between atoms: _53  and  _55
REMARK   21  A    between atoms: _55  and  _56
REMARK   22  A    between atoms: _55  and  _58
REMARK   23  A    between atoms: _58  and  _59
REMARK   24  A    between atoms: _69  and  _71
REMARK   25  A    between atoms: _71  and  _72
REMARK   26  A    between atoms: _71  and  _74
REMARK   27  A    between atoms: _77  and  _79
REMARK   28  A    between atoms: _79  and  _80
REMARK   29  A    between atoms: _79  and  _82
REMARK   30  A    between atoms: _82  and  _83
REMARK   31  A    between atoms: _86  and  _88
REMARK   32  A    between atoms: _88  and  _89
REMARK   33  A    between atoms: _88  and  _91
REMARK   34  A    between atoms: _91  and  _92
REMARK   35  A    between atoms: _94  and  _96
REMARK   36  A    between atoms: _96  and  _97
REMARK   37  A    between atoms: _96  and  _99
REMARK   38  A    between atoms: _99  and  _100
REMARK   39  A    between atoms: _104  and  _105
REMARK   40  A    between atoms: _111  and  _112
REMARK   41  A    between atoms: _118  and  _119
REMARK   42  A    between atoms: _124  and  _126
REMARK   43  A    between atoms: _126  and  _127
REMARK   44  A    between atoms: _129  and  _131
REMARK   45  A    between atoms: _131  and  _132
REMARK   46  A    between atoms: _131  and  _134
REMARK   47  A    between atoms: _134  and  _135
REMARK   48  A    between atoms: _138  and  _140
REMARK   49  A    between atoms: _140  and  _141
REMARK   50  A    between atoms: _140  and  _143
REMARK   51  A    between atoms: _143  and  _144
REMARK   52  A    between atoms: _144  and  _145
REMARK   53  A    between atoms: _145  and  _146
REMARK   54  A    between atoms: _155  and  _157
REMARK   55  A    between atoms: _157  and  _158
REMARK   56  A    between atoms: _157  and  _160
REMARK   57  A    between atoms: _163  and  _165
REMARK   58  A    between atoms: _165  and  _166
REMARK   59  A    between atoms: _165  and  _168
REMARK   60  A    between atoms: _168  and  _169
REMARK   61  A    between atoms: _169  and  _170
REMARK   62  A    between atoms: _170  and  _171
REMARK   63  A    between atoms: _181  and  _182
REMARK   64  A    between atoms: _187  and  _189
REMARK   65  A    between atoms: _189  and  _190
REMARK   66  A    between atoms: _189  and  _192
REMARK   67  A    between atoms: _194  and  _196
REMARK   68  A    between atoms: _196  and  _197
REMARK   69  A    between atoms: _196  and  _199
REMARK   70  A    between atoms: _199  and  _200
REMARK   71  A    between atoms: _200  and  _201
REMARK   72  A    between atoms: _205  and  _206
REMARK   73  A    between atoms: _212  and  _213
REMARK   74  A    between atoms: _218  and  _220
REMARK   75  A    between atoms: _220  and  _221
REMARK   76  A    between atoms: _220  and  _223
REMARK   77  A    between atoms: _223  and  _224
REMARK   78  A    between atoms: _226  and  _228
REMARK   79  A    between atoms: _228  and  _229
REMARK   80  A    between atoms: _228  and  _231
REMARK   81  A    between atoms: _231  and  _232
REMARK   82  A    between atoms: _235  and  _237
REMARK   83  A    between atoms: _237  and  _238
REMARK   84  A    between atoms: _237  and  _240
REMARK   85  A    between atoms: _242  and  _244
REMARK   86  A    between atoms: _244  and  _245
REMARK   87  A    between atoms: _244  and  _247
REMARK   88  A    between atoms: _247  and  _248
REMARK   89  A    between atoms: _251  and  _253
REMARK   90  A    between atoms: _253  and  _254
REMARK   91  A    between atoms: _253  and  _256
REMARK   92  A    between atoms: _256  and  _257
REMARK   93  A    between atoms: _260  and  _262
REMARK   94  A    between atoms: _262  and  _263
REMARK   95  A    between atoms: _262  and  _265
REMARK   96  A    between atoms: _265  and  _266
REMARK   97  A    between atoms: _269  and  _271
REMARK   98  A    between atoms: _271  and  _272
REMARK   99  A    between atoms: _271  and  _274
REMARK  100  A    between atoms: _274  and  _275
REMARK  101  A    between atoms: _275  and  _276
REMARK                            x       y       z     vdW  Elec       q    Type
REMARK                         _______ _______ _______ _____ _____    ______ ____
ROOT
ATOM      1  O   HOH     1     128.430 103.689 -51.967  0.00  0.00    +0.000 OA
ENDROOT
TORSDOF 0
REMARK  Name = ../refined-set-2016/5aoi/5aoi_pocket.pdb
REMARK  101 active torsions:
REMARK  status: ('A' for Active; 'I' for Inactive)
REMARK    1  A    between atoms: _1  and  _3
REMARK    2  A    between atoms: _3  and  _4
REMARK    3  A    between atoms: _3  and  _6
REMARK    4  A    between atoms: _6  and  _7
REMARK    5  A    between atoms: _12  and  _13
REMARK    6  A    between atoms: _15  and  _17
REMARK    7  A    between atoms: _17  and  _18
REMARK    8  A    between atoms: _17  and  _20
REMARK    9  A    between atoms: _20  and  _21
REMARK   10  A    between atoms: _27  and  _29
REMARK   11  A    between atoms: _29  and  _30
REMARK   12  A    between atoms: _29  and  _32
REMARK   13  A    between atoms: _32  and  _33
REMARK   14  A    between atoms: _33  and  _34
REMARK   15  A    between atoms: _34  and  _35
REMARK   16  A    between atoms: _44  and  _46
REMARK   17  A    between atoms: _46  and  _47
REMARK   18  A    between atoms: _46  and  _49
REMARK   19  A    between atoms: _49  and  _50
REMARK   20  A    between atoms: _53  and  _55
REMARK   21  A    between atoms: _55  and  _56
REMARK   22  A    between atoms: _55  and  _58
REMARK   23  A    between atoms: _58  and  _59
REMARK   24  A    between atoms: _69  and  _71
REMARK   25  A    between atoms: _71  and  _72
REMARK   26  A    between atoms: _71  and  _74
REMARK   27  A    between atoms: _77  and  _79
REMARK   28  A    between atoms: _79  and  _80
REMARK   29  A    between atoms: _79  and  _82
REMARK   30  A    between atoms: _82  and  _83
REMARK   31  A    between atoms: _86  and  _88
REMARK   32  A    between atoms: _88  and  _89
REMARK   33  A    between atoms: _88  and  _91
REMARK   34  A    between atoms: _91  and  _92
REMARK   35  A    between atoms: _94  and  _96
REMARK   36  A    between atoms: _96  and  _97
REMARK   37  A    between atoms: _96  and  _99
REMARK   38  A    between atoms: _99  and  _100
REMARK   39  A    between atoms: _104  and  _105
REMARK   40  A    between atoms: _111  and  _112
REMARK   41  A    between atoms: _118  and  _119
REMARK   42  A    between atoms: _124  and  _126
REMARK   43  A    between atoms: _126  and  _127
REMARK   44  A    between atoms: _129  and  _131
REMARK   45  A    between atoms: _131  and  _132
REMARK   46  A    between atoms: _131  and  _134
REMARK   47  A    between atoms: _134  and  _135
REMARK   48  A    between atoms: _138  and  _140
REMARK   49  A    between atoms: _140  and  _141
REMARK   50  A    between atoms: _140  and  _143
REMARK   51  A    between atoms: _143  and  _144
REMARK   52  A    between atoms: _144  and  _145
REMARK   53  A    between atoms: _145  and  _146
REMARK   54  A    between atoms: _155  and  _157
REMARK   55  A    between atoms: _157  and  _158
REMARK   56  A    between atoms: _157  and  _160
REMARK   57  A    between atoms: _163  and  _165
REMARK   58  A    between atoms: _165  and  _166
REMARK   59  A    between atoms: _165  and  _168
REMARK   60  A    between atoms: _168  and  _169
REMARK   61  A    between atoms: _169  and  _170
REMARK   62  A    between atoms: _170  and  _171
REMARK   63  A    between atoms: _181  and  _182
REMARK   64  A    between atoms: _187  and  _189
REMARK   65  A    between atoms: _189  and  _190
REMARK   66  A    between atoms: _189  and  _192
REMARK   67  A    between atoms: _194  and  _196
REMARK   68  A    between atoms: _196  and  _197
REMARK   69  A    between atoms: _196  and  _199
REMARK   70  A    between atoms: _199  and  _200
REMARK   71  A    between atoms: _200  and  _201
REMARK   72  A    between atoms: _205  and  _206
REMARK   73  A    between atoms: _212  and  _213
REMARK   74  A    between atoms: _218  and  _220
REMARK   75  A    between atoms: _220  and  _221
REMARK   76  A    between atoms: _220  and  _223
REMARK   77  A    between atoms: _223  and  _224
REMARK   78  A    between atoms: _226  and  _228
REMARK   79  A    between atoms: _228  and  _229
REMARK   80  A    between atoms: _228  and  _231
REMARK   81  A    between atoms: _231  and  _232
REMARK   82  A    between atoms: _235  and  _237
REMARK   83  A    between atoms: _237  and  _238
REMARK   84  A    between atoms: _237  and  _240
REMARK   85  A    between atoms: _242  and  _244
REMARK   86  A    between atoms: _244  and  _245
REMARK   87  A    between atoms: _244  and  _247
REMARK   88  A    between atoms: _247  and  _248
REMARK   89  A    between atoms: _251  and  _253
REMARK   90  A    between atoms: _253  and  _254
REMARK   91  A    between atoms: _253  and  _256
REMARK   92  A    between atoms: _256  and  _257
REMARK   93  A    between atoms: _260  and  _262
REMARK   94  A    between atoms: _262  and  _263
REMARK   95  A    between atoms: _262  and  _265
REMARK   96  A    between atoms: _265  and  _266
REMARK   97  A    between atoms: _269  and  _271
REMARK   98  A    between atoms: _271  and  _272
REMARK   99  A    between atoms: _271  and  _274
REMARK  100  A    between atoms: _274  and  _275
REMARK  101  A    between atoms: _275  and  _276
REMARK                            x       y       z     vdW  Elec       q    Type
REMARK                         _______ _______ _______ _____ _____    ______ ____
ROOT
ATOM      1  O   HOH     1     127.125 102.835 -53.957  0.00  0.00    +0.000 OA
ENDROOT
TORSDOF 0
REMARK  Name = ../refined-set-2016/5aoi/5aoi_pocket.pdb
REMARK  101 active torsions:
REMARK  status: ('A' for Active; 'I' for Inactive)
REMARK    1  A    between atoms: _1  and  _3
REMARK    2  A    between atoms: _3  and  _4
REMARK    3  A    between atoms: _3  and  _6
REMARK    4  A    between atoms: _6  and  _7
REMARK    5  A    between atoms: _12  and  _13
REMARK    6  A    between atoms: _15  and  _17
REMARK    7  A    between atoms: _17  and  _18
REMARK    8  A    between atoms: _17  and  _20
REMARK    9  A    between atoms: _20  and  _21
REMARK   10  A    between atoms: _27  and  _29
REMARK   11  A    between atoms: _29  and  _30
REMARK   12  A    between atoms: _29  and  _32
REMARK   13  A    between atoms: _32  and  _33
REMARK   14  A    between atoms: _33  and  _34
REMARK   15  A    between atoms: _34  and  _35
REMARK   16  A    between atoms: _44  and  _46
REMARK   17  A    between atoms: _46  and  _47
REMARK   18  A    between atoms: _46  and  _49
REMARK   19  A    between atoms: _49  and  _50
REMARK   20  A    between atoms: _53  and  _55
REMARK   21  A    between atoms: _55  and  _56
REMARK   22  A    between atoms: _55  and  _58
REMARK   23  A    between atoms: _58  and  _59
REMARK   24  A    between atoms: _69  and  _71
REMARK   25  A    between atoms: _71  and  _72
REMARK   26  A    between atoms: _71  and  _74
REMARK   27  A    between atoms: _77  and  _79
REMARK   28  A    between atoms: _79  and  _80
REMARK   29  A    between atoms: _79  and  _82
REMARK   30  A    between atoms: _82  and  _83
REMARK   31  A    between atoms: _86  and  _88
REMARK   32  A    between atoms: _88  and  _89
REMARK   33  A    between atoms: _88  and  _91
REMARK   34  A    between atoms: _91  and  _92
REMARK   35  A    between atoms: _94  and  _96
REMARK   36  A    between atoms: _96  and  _97
REMARK   37  A    between atoms: _96  and  _99
REMARK   38  A    between atoms: _99  and  _100
REMARK   39  A    between atoms: _104  and  _105
REMARK   40  A    between atoms: _111  and  _112
REMARK   41  A    between atoms: _118  and  _119
REMARK   42  A    between atoms: _124  and  _126
REMARK   43  A    between atoms: _126  and  _127
REMARK   44  A    between atoms: _129  and  _131
REMARK   45  A    between atoms: _131  and  _132
REMARK   46  A    between atoms: _131  and  _134
REMARK   47  A    between atoms: _134  and  _135
REMARK   48  A    between atoms: _138  and  _140
REMARK   49  A    between atoms: _140  and  _141
REMARK   50  A    between atoms: _140  and  _143
REMARK   51  A    between atoms: _143  and  _144
REMARK   52  A    between atoms: _144  and  _145
REMARK   53  A    between atoms: _145  and  _146
REMARK   54  A    between atoms: _155  and  _157
REMARK   55  A    between atoms: _157  and  _158
REMARK   56  A    between atoms: _157  and  _160
REMARK   57  A    between atoms: _163  and  _165
REMARK   58  A    between atoms: _165  and  _166
REMARK   59  A    between atoms: _165  and  _168
REMARK   60  A    between atoms: _168  and  _169
REMARK   61  A    between atoms: _169  and  _170
REMARK   62  A    between atoms: _170  and  _171
REMARK   63  A    between atoms: _181  and  _182
REMARK   64  A    between atoms: _187  and  _189
REMARK   65  A    between atoms: _189  and  _190
REMARK   66  A    between atoms: _189  and  _192
REMARK   67  A    between atoms: _194  and  _196
REMARK   68  A    between atoms: _196  and  _197
REMARK   69  A    between atoms: _196  and  _199
REMARK   70  A    between atoms: _199  and  _200
REMARK   71  A    between atoms: _200  and  _201
REMARK   72  A    between atoms: _205  and  _206
REMARK   73  A    between atoms: _212  and  _213
REMARK   74  A    between atoms: _218  and  _220
REMARK   75  A    between atoms: _220  and  _221
REMARK   76  A    between atoms: _220  and  _223
REMARK   77  A    between atoms: _223  and  _224
REMARK   78  A    between atoms: _226  and  _228
REMARK   79  A    between atoms: _228  and  _229
REMARK   80  A    between atoms: _228  and  _231
REMARK   81  A    between atoms: _231  and  _232
REMARK   82  A    between atoms: _235  and  _237
REMARK   83  A    between atoms: _237  and  _238
REMARK   84  A    between atoms: _237  and  _240
REMARK   85  A    between atoms: _242  and  _244
REMARK   86  A    between atoms: _244  and  _245
REMARK   87  A    between atoms: _244  and  _247
REMARK   88  A    between atoms: _247  and  _248
REMARK   89  A    between atoms: _251  and  _253
REMARK   90  A    between atoms: _253  and  _254
REMARK   91  A    between atoms: _253  and  _256
REMARK   92  A    between atoms: _256  and  _257
REMARK   93  A    between atoms: _260  and  _262
REMARK   94  A    between atoms: _262  and  _263
REMARK   95  A    between atoms: _262  and  _265
REMARK   96  A    between atoms: _265  and  _266
REMARK   97  A    between atoms: _269  and  _271
REMARK   98  A    between atoms: _271  and  _272
REMARK   99  A    between atoms: _271  and  _274
REMARK  100  A    between atoms: _274  and  _275
REMARK  101  A    between atoms: _275  and  _276
REMARK                            x       y       z     vdW  Elec       q    Type
REMARK                         _______ _______ _______ _____ _____    ______ ____
ROOT
ATOM      1  O   HOH     1     123.990 101.585 -50.816  0.00  0.00    +0.000 OA
ENDROOT
TORSDOF 0
REMARK  Name = ../refined-set-2016/5aoi/5aoi_pocket.pdb
REMARK  101 active torsions:
REMARK  status: ('A' for Active; 'I' for Inactive)
REMARK    1  A    between atoms: _1  and  _3
REMARK    2  A    between atoms: _3  and  _4
REMARK    3  A    between atoms: _3  and  _6
REMARK    4  A    between atoms: _6  and  _7
REMARK    5  A    between atoms: _12  and  _13
REMARK    6  A    between atoms: _15  and  _17
REMARK    7  A    between atoms: _17  and  _18
REMARK    8  A    between atoms: _17  and  _20
REMARK    9  A    between atoms: _20  and  _21
REMARK   10  A    between atoms: _27  and  _29
REMARK   11  A    between atoms: _29  and  _30
REMARK   12  A    between atoms: _29  and  _32
REMARK   13  A    between atoms: _32  and  _33
REMARK   14  A    between atoms: _33  and  _34
REMARK   15  A    between atoms: _34  and  _35
REMARK   16  A    between atoms: _44  and  _46
REMARK   17  A    between atoms: _46  and  _47
REMARK   18  A    between atoms: _46  and  _49
REMARK   19  A    between atoms: _49  and  _50
REMARK   20  A    between atoms: _53  and  _55
REMARK   21  A    between atoms: _55  and  _56
REMARK   22  A    between atoms: _55  and  _58
REMARK   23  A    between atoms: _58  and  _59
REMARK   24  A    between atoms: _69  and  _71
REMARK   25  A    between atoms: _71  and  _72
REMARK   26  A    between atoms: _71  and  _74
REMARK   27  A    between atoms: _77  and  _79
REMARK   28  A    between atoms: _79  and  _80
REMARK   29  A    between atoms: _79  and  _82
REMARK   30  A    between atoms: _82  and  _83
REMARK   31  A    between atoms: _86  and  _88
REMARK   32  A    between atoms: _88  and  _89
REMARK   33  A    between atoms: _88  and  _91
REMARK   34  A    between atoms: _91  and  _92
REMARK   35  A    between atoms: _94  and  _96
REMARK   36  A    between atoms: _96  and  _97
REMARK   37  A    between atoms: _96  and  _99
REMARK   38  A    between atoms: _99  and  _100
REMARK   39  A    between atoms: _104  and  _105
REMARK   40  A    between atoms: _111  and  _112
REMARK   41  A    between atoms: _118  and  _119
REMARK   42  A    between atoms: _124  and  _126
REMARK   43  A    between atoms: _126  and  _127
REMARK   44  A    between atoms: _129  and  _131
REMARK   45  A    between atoms: _131  and  _132
REMARK   46  A    between atoms: _131  and  _134
REMARK   47  A    between atoms: _134  and  _135
REMARK   48  A    between atoms: _138  and  _140
REMARK   49  A    between atoms: _140  and  _141
REMARK   50  A    between atoms: _140  and  _143
REMARK   51  A    between atoms: _143  and  _144
REMARK   52  A    between atoms: _144  and  _145
REMARK   53  A    between atoms: _145  and  _146
REMARK   54  A    between atoms: _155  and  _157
REMARK   55  A    between atoms: _157  and  _158
REMARK   56  A    between atoms: _157  and  _160
REMARK   57  A    between atoms: _163  and  _165
REMARK   58  A    between atoms: _165  and  _166
REMARK   59  A    between atoms: _165  and  _168
REMARK   60  A    between atoms: _168  and  _169
REMARK   61  A    between atoms: _169  and  _170
REMARK   62  A    between atoms: _170  and  _171
REMARK   63  A    between atoms: _181  and  _182
REMARK   64  A    between atoms: _187  and  _189
REMARK   65  A    between atoms: _189  and  _190
REMARK   66  A    between atoms: _189  and  _192
REMARK   67  A    between atoms: _194  and  _196
REMARK   68  A    between atoms: _196  and  _197
REMARK   69  A    between atoms: _196  and  _199
REMARK   70  A    between atoms: _199  and  _200
REMARK   71  A    between atoms: _200  and  _201
REMARK   72  A    between atoms: _205  and  _206
REMARK   73  A    between atoms: _212  and  _213
REMARK   74  A    between atoms: _218  and  _220
REMARK   75  A    between atoms: _220  and  _221
REMARK   76  A    between atoms: _220  and  _223
REMARK   77  A    between atoms: _223  and  _224
REMARK   78  A    between atoms: _226  and  _228
REMARK   79  A    between atoms: _228  and  _229
REMARK   80  A    between atoms: _228  and  _231
REMARK   81  A    between atoms: _231  and  _232
REMARK   82  A    between atoms: _235  and  _237
REMARK   83  A    between atoms: _237  and  _238
REMARK   84  A    between atoms: _237  and  _240
REMARK   85  A    between atoms: _242  and  _244
REMARK   86  A    between atoms: _244  and  _245
REMARK   87  A    between atoms: _244  and  _247
REMARK   88  A    between atoms: _247  and  _248
REMARK   89  A    between atoms: _251  and  _253
REMARK   90  A    between atoms: _253  and  _254
REMARK   91  A    between atoms: _253  and  _256
REMARK   92  A    between atoms: _256  and  _257
REMARK   93  A    between atoms: _260  and  _262
REMARK   94  A    between atoms: _262  and  _263
REMARK   95  A    between atoms: _262  and  _265
REMARK   96  A    between atoms: _265  and  _266
REMARK   97  A    between atoms: _269  and  _271
REMARK   98  A    between atoms: _271  and  _272
REMARK   99  A    between atoms: _271  and  _274
REMARK  100  A    between atoms: _274  and  _275
REMARK  101  A    between atoms: _275  and  _276
REMARK                            x       y       z     vdW  Elec       q    Type
REMARK                         _______ _______ _______ _____ _____    ______ ____
ROOT
ATOM      1  O   HOH     1     122.916  92.925 -49.166  0.00  0.00    +0.000 OA
ENDROOT
TORSDOF 0
REMARK  Name = ../refined-set-2016/5aoi/5aoi_pocket.pdb
REMARK  101 active torsions:
REMARK  status: ('A' for Active; 'I' for Inactive)
REMARK    1  A    between atoms: _1  and  _3
REMARK    2  A    between atoms: _3  and  _4
REMARK    3  A    between atoms: _3  and  _6
REMARK    4  A    between atoms: _6  and  _7
REMARK    5  A    between atoms: _12  and  _13
REMARK    6  A    between atoms: _15  and  _17
REMARK    7  A    between atoms: _17  and  _18
REMARK    8  A    between atoms: _17  and  _20
REMARK    9  A    between atoms: _20  and  _21
REMARK   10  A    between atoms: _27  and  _29
REMARK   11  A    between atoms: _29  and  _30
REMARK   12  A    between atoms: _29  and  _32
REMARK   13  A    between atoms: _32  and  _33
REMARK   14  A    between atoms: _33  and  _34
REMARK   15  A    between atoms: _34  and  _35
REMARK   16  A    between atoms: _44  and  _46
REMARK   17  A    between atoms: _46  and  _47
REMARK   18  A    between atoms: _46  and  _49
REMARK   19  A    between atoms: _49  and  _50
REMARK   20  A    between atoms: _53  and  _55
REMARK   21  A    between atoms: _55  and  _56
REMARK   22  A    between atoms: _55  and  _58
REMARK   23  A    between atoms: _58  and  _59
REMARK   24  A    between atoms: _69  and  _71
REMARK   25  A    between atoms: _71  and  _72
REMARK   26  A    between atoms: _71  and  _74
REMARK   27  A    between atoms: _77  and  _79
REMARK   28  A    between atoms: _79  and  _80
REMARK   29  A    between atoms: _79  and  _82
REMARK   30  A    between atoms: _82  and  _83
REMARK   31  A    between atoms: _86  and  _88
REMARK   32  A    between atoms: _88  and  _89
REMARK   33  A    between atoms: _88  and  _91
REMARK   34  A    between atoms: _91  and  _92
REMARK   35  A    between atoms: _94  and  _96
REMARK   36  A    between atoms: _96  and  _97
REMARK   37  A    between atoms: _96  and  _99
REMARK   38  A    between atoms: _99  and  _100
REMARK   39  A    between atoms: _104  and  _105
REMARK   40  A    between atoms: _111  and  _112
REMARK   41  A    between atoms: _118  and  _119
REMARK   42  A    between atoms: _124  and  _126
REMARK   43  A    between atoms: _126  and  _127
REMARK   44  A    between atoms: _129  and  _131
REMARK   45  A    between atoms: _131  and  _132
REMARK   46  A    between atoms: _131  and  _134
REMARK   47  A    between atoms: _134  and  _135
REMARK   48  A    between atoms: _138  and  _140
REMARK   49  A    between atoms: _140  and  _141
REMARK   50  A    between atoms: _140  and  _143
REMARK   51  A    between atoms: _143  and  _144
REMARK   52  A    between atoms: _144  and  _145
REMARK   53  A    between atoms: _145  and  _146
REMARK   54  A    between atoms: _155  and  _157
REMARK   55  A    between atoms: _157  and  _158
REMARK   56  A    between atoms: _157  and  _160
REMARK   57  A    between atoms: _163  and  _165
REMARK   58  A    between atoms: _165  and  _166
REMARK   59  A    between atoms: _165  and  _168
REMARK   60  A    between atoms: _168  and  _169
REMARK   61  A    between atoms: _169  and  _170
REMARK   62  A    between atoms: _170  and  _171
REMARK   63  A    between atoms: _181  and  _182
REMARK   64  A    between atoms: _187  and  _189
REMARK   65  A    between atoms: _189  and  _190
REMARK   66  A    between atoms: _189  and  _192
REMARK   67  A    between atoms: _194  and  _196
REMARK   68  A    between atoms: _196  and  _197
REMARK   69  A    between atoms: _196  and  _199
REMARK   70  A    between atoms: _199  and  _200
REMARK   71  A    between atoms: _200  and  _201
REMARK   72  A    between atoms: _205  and  _206
REMARK   73  A    between atoms: _212  and  _213
REMARK   74  A    between atoms: _218  and  _220
REMARK   75  A    between atoms: _220  and  _221
REMARK   76  A    between atoms: _220  and  _223
REMARK   77  A    between atoms: _223  and  _224
REMARK   78  A    between atoms: _226  and  _228
REMARK   79  A    between atoms: _228  and  _229
REMARK   80  A    between atoms: _228  and  _231
REMARK   81  A    between atoms: _231  and  _232
REMARK   82  A    between atoms: _235  and  _237
REMARK   83  A    between atoms: _237  and  _238
REMARK   84  A    between atoms: _237  and  _240
REMARK   85  A    between atoms: _242  and  _244
REMARK   86  A    between atoms: _244  and  _245
REMARK   87  A    between atoms: _244  and  _247
REMARK   88  A    between atoms: _247  and  _248
REMARK   89  A    between atoms: _251  and  _253
REMARK   90  A    between atoms: _253  and  _254
REMARK   91  A    between atoms: _253  and  _256
REMARK   92  A    between atoms: _256  and  _257
REMARK   93  A    between atoms: _260  and  _262
REMARK   94  A    between atoms: _262  and  _263
REMARK   95  A    between atoms: _262  and  _265
REMARK   96  A    between atoms: _265  and  _266
REMARK   97  A    between atoms: _269  and  _271
REMARK   98  A    between atoms: _271  and  _272
REMARK   99  A    between atoms: _271  and  _274
REMARK  100  A    between atoms: _274  and  _275
REMARK  101  A    between atoms: _275  and  _276
REMARK                            x       y       z     vdW  Elec       q    Type
REMARK                         _______ _______ _______ _____ _____    ______ ____
ROOT
ATOM      1  O   HOH     1     123.848  95.400 -47.827  0.00  0.00    +0.000 OA
ENDROOT
TORSDOF 0
REMARK  Name = ../refined-set-2016/5aoi/5aoi_pocket.pdb
REMARK  101 active torsions:
REMARK  status: ('A' for Active; 'I' for Inactive)
REMARK    1  A    between atoms: _1  and  _3
REMARK    2  A    between atoms: _3  and  _4
REMARK    3  A    between atoms: _3  and  _6
REMARK    4  A    between atoms: _6  and  _7
REMARK    5  A    between atoms: _12  and  _13
REMARK    6  A    between atoms: _15  and  _17
REMARK    7  A    between atoms: _17  and  _18
REMARK    8  A    between atoms: _17  and  _20
REMARK    9  A    between atoms: _20  and  _21
REMARK   10  A    between atoms: _27  and  _29
REMARK   11  A    between atoms: _29  and  _30
REMARK   12  A    between atoms: _29  and  _32
REMARK   13  A    between atoms: _32  and  _33
REMARK   14  A    between atoms: _33  and  _34
REMARK   15  A    between atoms: _34  and  _35
REMARK   16  A    between atoms: _44  and  _46
REMARK   17  A    between atoms: _46  and  _47
REMARK   18  A    between atoms: _46  and  _49
REMARK   19  A    between atoms: _49  and  _50
REMARK   20  A    between atoms: _53  and  _55
REMARK   21  A    between atoms: _55  and  _56
REMARK   22  A    between atoms: _55  and  _58
REMARK   23  A    between atoms: _58  and  _59
REMARK   24  A    between atoms: _69  and  _71
REMARK   25  A    between atoms: _71  and  _72
REMARK   26  A    between atoms: _71  and  _74
REMARK   27  A    between atoms: _77  and  _79
REMARK   28  A    between atoms: _79  and  _80
REMARK   29  A    between atoms: _79  and  _82
REMARK   30  A    between atoms: _82  and  _83
REMARK   31  A    between atoms: _86  and  _88
REMARK   32  A    between atoms: _88  and  _89
REMARK   33  A    between atoms: _88  and  _91
REMARK   34  A    between atoms: _91  and  _92
REMARK   35  A    between atoms: _94  and  _96
REMARK   36  A    between atoms: _96  and  _97
REMARK   37  A    between atoms: _96  and  _99
REMARK   38  A    between atoms: _99  and  _100
REMARK   39  A    between atoms: _104  and  _105
REMARK   40  A    between atoms: _111  and  _112
REMARK   41  A    between atoms: _118  and  _119
REMARK   42  A    between atoms: _124  and  _126
REMARK   43  A    between atoms: _126  and  _127
REMARK   44  A    between atoms: _129  and  _131
REMARK   45  A    between atoms: _131  and  _132
REMARK   46  A    between atoms: _131  and  _134
REMARK   47  A    between atoms: _134  and  _135
REMARK   48  A    between atoms: _138  and  _140
REMARK   49  A    between atoms: _140  and  _141
REMARK   50  A    between atoms: _140  and  _143
REMARK   51  A    between atoms: _143  and  _144
REMARK   52  A    between atoms: _144  and  _145
REMARK   53  A    between atoms: _145  and  _146
REMARK   54  A    between atoms: _155  and  _157
REMARK   55  A    between atoms: _157  and  _158
REMARK   56  A    between atoms: _157  and  _160
REMARK   57  A    between atoms: _163  and  _165
REMARK   58  A    between atoms: _165  and  _166
REMARK   59  A    between atoms: _165  and  _168
REMARK   60  A    between atoms: _168  and  _169
REMARK   61  A    between atoms: _169  and  _170
REMARK   62  A    between atoms: _170  and  _171
REMARK   63  A    between atoms: _181  and  _182
REMARK   64  A    between atoms: _187  and  _189
REMARK   65  A    between atoms: _189  and  _190
REMARK   66  A    between atoms: _189  and  _192
REMARK   67  A    between atoms: _194  and  _196
REMARK   68  A    between atoms: _196  and  _197
REMARK   69  A    between atoms: _196  and  _199
REMARK   70  A    between atoms: _199  and  _200
REMARK   71  A    between atoms: _200  and  _201
REMARK   72  A    between atoms: _205  and  _206
REMARK   73  A    between atoms: _212  and  _213
REMARK   74  A    between atoms: _218  and  _220
REMARK   75  A    between atoms: _220  and  _221
REMARK   76  A    between atoms: _220  and  _223
REMARK   77  A    between atoms: _223  and  _224
REMARK   78  A    between atoms: _226  and  _228
REMARK   79  A    between atoms: _228  and  _229
REMARK   80  A    between atoms: _228  and  _231
REMARK   81  A    between atoms: _231  and  _232
REMARK   82  A    between atoms: _235  and  _237
REMARK   83  A    between atoms: _237  and  _238
REMARK   84  A    between atoms: _237  and  _240
REMARK   85  A    between atoms: _242  and  _244
REMARK   86  A    between atoms: _244  and  _245
REMARK   87  A    between atoms: _244  and  _247
REMARK   88  A    between atoms: _247  and  _248
REMARK   89  A    between atoms: _251  and  _253
REMARK   90  A    between atoms: _253  and  _254
REMARK   91  A    between atoms: _253  and  _256
REMARK   92  A    between atoms: _256  and  _257
REMARK   93  A    between atoms: _260  and  _262
REMARK   94  A    between atoms: _262  and  _263
REMARK   95  A    between atoms: _262  and  _265
REMARK   96  A    between atoms: _265  and  _266
REMARK   97  A    between atoms: _269  and  _271
REMARK   98  A    between atoms: _271  and  _272
REMARK   99  A    between atoms: _271  and  _274
REMARK  100  A    between atoms: _274  and  _275
REMARK  101  A    between atoms: _275  and  _276
REMARK                            x       y       z     vdW  Elec       q    Type
REMARK                         _______ _______ _______ _____ _____    ______ ____
ROOT
ATOM      1  O   HOH     1     122.218  96.305 -40.855  0.00  0.00    +0.000 OA
ENDROOT
TORSDOF 0
REMARK  Name = ../refined-set-2016/5aoi/5aoi_pocket.pdb
REMARK  101 active torsions:
REMARK  status: ('A' for Active; 'I' for Inactive)
REMARK    1  A    between atoms: _1  and  _3
REMARK    2  A    between atoms: _3  and  _4
REMARK    3  A    between atoms: _3  and  _6
REMARK    4  A    between atoms: _6  and  _7
REMARK    5  A    between atoms: _12  and  _13
REMARK    6  A    between atoms: _15  and  _17
REMARK    7  A    between atoms: _17  and  _18
REMARK    8  A    between atoms: _17  and  _20
REMARK    9  A    between atoms: _20  and  _21
REMARK   10  A    between atoms: _27  and  _29
REMARK   11  A    between atoms: _29  and  _30
REMARK   12  A    between atoms: _29  and  _32
REMARK   13  A    between atoms: _32  and  _33
REMARK   14  A    between atoms: _33  and  _34
REMARK   15  A    between atoms: _34  and  _35
REMARK   16  A    between atoms: _44  and  _46
REMARK   17  A    between atoms: _46  and  _47
REMARK   18  A    between atoms: _46  and  _49
REMARK   19  A    between atoms: _49  and  _50
REMARK   20  A    between atoms: _53  and  _55
REMARK   21  A    between atoms: _55  and  _56
REMARK   22  A    between atoms: _55  and  _58
REMARK   23  A    between atoms: _58  and  _59
REMARK   24  A    between atoms: _69  and  _71
REMARK   25  A    between atoms: _71  and  _72
REMARK   26  A    between atoms: _71  and  _74
REMARK   27  A    between atoms: _77  and  _79
REMARK   28  A    between atoms: _79  and  _80
REMARK   29  A    between atoms: _79  and  _82
REMARK   30  A    between atoms: _82  and  _83
REMARK   31  A    between atoms: _86  and  _88
REMARK   32  A    between atoms: _88  and  _89
REMARK   33  A    between atoms: _88  and  _91
REMARK   34  A    between atoms: _91  and  _92
REMARK   35  A    between atoms: _94  and  _96
REMARK   36  A    between atoms: _96  and  _97
REMARK   37  A    between atoms: _96  and  _99
REMARK   38  A    between atoms: _99  and  _100
REMARK   39  A    between atoms: _104  and  _105
REMARK   40  A    between atoms: _111  and  _112
REMARK   41  A    between atoms: _118  and  _119
REMARK   42  A    between atoms: _124  and  _126
REMARK   43  A    between atoms: _126  and  _127
REMARK   44  A    between atoms: _129  and  _131
REMARK   45  A    between atoms: _131  and  _132
REMARK   46  A    between atoms: _131  and  _134
REMARK   47  A    between atoms: _134  and  _135
REMARK   48  A    between atoms: _138  and  _140
REMARK   49  A    between atoms: _140  and  _141
REMARK   50  A    between atoms: _140  and  _143
REMARK   51  A    between atoms: _143  and  _144
REMARK   52  A    between atoms: _144  and  _145
REMARK   53  A    between atoms: _145  and  _146
REMARK   54  A    between atoms: _155  and  _157
REMARK   55  A    between atoms: _157  and  _158
REMARK   56  A    between atoms: _157  and  _160
REMARK   57  A    between atoms: _163  and  _165
REMARK   58  A    between atoms: _165  and  _166
REMARK   59  A    between atoms: _165  and  _168
REMARK   60  A    between atoms: _168  and  _169
REMARK   61  A    between atoms: _169  and  _170
REMARK   62  A    between atoms: _170  and  _171
REMARK   63  A    between atoms: _181  and  _182
REMARK   64  A    between atoms: _187  and  _189
REMARK   65  A    between atoms: _189  and  _190
REMARK   66  A    between atoms: _189  and  _192
REMARK   67  A    between atoms: _194  and  _196
REMARK   68  A    between atoms: _196  and  _197
REMARK   69  A    between atoms: _196  and  _199
REMARK   70  A    between atoms: _199  and  _200
REMARK   71  A    between atoms: _200  and  _201
REMARK   72  A    between atoms: _205  and  _206
REMARK   73  A    between atoms: _212  and  _213
REMARK   74  A    between atoms: _218  and  _220
REMARK   75  A    between atoms: _220  and  _221
REMARK   76  A    between atoms: _220  and  _223
REMARK   77  A    between atoms: _223  and  _224
REMARK   78  A    between atoms: _226  and  _228
REMARK   79  A    between atoms: _228  and  _229
REMARK   80  A    between atoms: _228  and  _231
REMARK   81  A    between atoms: _231  and  _232
REMARK   82  A    between atoms: _235  and  _237
REMARK   83  A    between atoms: _237  and  _238
REMARK   84  A    between atoms: _237  and  _240
REMARK   85  A    between atoms: _242  and  _244
REMARK   86  A    between atoms: _244  and  _245
REMARK   87  A    between atoms: _244  and  _247
REMARK   88  A    between atoms: _247  and  _248
REMARK   89  A    between atoms: _251  and  _253
REMARK   90  A    between atoms: _253  and  _254
REMARK   91  A    between atoms: _253  and  _256
REMARK   92  A    between atoms: _256  and  _257
REMARK   93  A    between atoms: _260  and  _262
REMARK   94  A    between atoms: _262  and  _263
REMARK   95  A    between atoms: _262  and  _265
REMARK   96  A    between atoms: _265  and  _266
REMARK   97  A    between atoms: _269  and  _271
REMARK   98  A    between atoms: _271  and  _272
REMARK   99  A    between atoms: _271  and  _274
REMARK  100  A    between atoms: _274  and  _275
REMARK  101  A    between atoms: _275  and  _276
REMARK                            x       y       z     vdW  Elec       q    Type
REMARK                         _______ _______ _______ _____ _____    ______ ____
ROOT
ATOM      1  O   HOH     1     118.032  99.645 -40.475  0.00  0.00    +0.000 OA
ENDROOT
TORSDOF 0
