REMARK  Name = ../refined-set-2016/4g0y/4g0y_pocket.pdb
REMARK  128 active torsions:
REMARK  status: ('A' for Active; 'I' for Inactive)
REMARK    1  A    between atoms: _1  and  _3
REMARK    2  A    between atoms: _3  and  _4
REMARK    3  A    between atoms: _3  and  _6
REMARK    4  A    between atoms: _6  and  _7
REMARK    5  A    between atoms: _10  and  _12
REMARK    6  A    between atoms: _12  and  _13
REMARK    7  A    between atoms: _12  and  _15
REMARK    8  A    between atoms: _15  and  _16
REMARK    9  A    between atoms: _19  and  _21
REMARK   10  A    between atoms: _21  and  _22
REMARK   11  A    between atoms: _21  and  _24
REMARK   12  A    between atoms: _27  and  _29
REMARK   13  A    between atoms: _29  and  _30
REMARK   14  A    between atoms: _29  and  _32
REMARK   15  A    between atoms: _32  and  _33
REMARK   16  A    between atoms: _37  and  _38
REMARK   17  A    between atoms: _43  and  _45
REMARK   18  A    between atoms: _45  and  _46
REMARK   19  A    between atoms: _45  and  _48
REMARK   20  A    between atoms: _48  and  _49
REMARK   21  A    between atoms: _52  and  _54
REMARK   22  A    between atoms: _54  and  _55
REMARK   23  A    between atoms: _54  and  _57
REMARK   24  A    between atoms: _57  and  _58
REMARK   25  A    between atoms: _63  and  _65
REMARK   26  A    between atoms: _65  and  _66
REMARK   27  A    between atoms: _65  and  _68
REMARK   28  A    between atoms: _68  and  _69
REMARK   29  A    between atoms: _74  and  _76
REMARK   30  A    between atoms: _76  and  _77
REMARK   31  A    between atoms: _79  and  _81
REMARK   32  A    between atoms: _81  and  _82
REMARK   33  A    between atoms: _81  and  _84
REMARK   34  A    between atoms: _84  and  _85
REMARK   35  A    between atoms: _87  and  _89
REMARK   36  A    between atoms: _89  and  _90
REMARK   37  A    between atoms: _89  and  _92
REMARK   38  A    between atoms: _92  and  _93
REMARK   39  A    between atoms: _96  and  _98
REMARK   40  A    between atoms: _98  and  _99
REMARK   41  A    between atoms: _98  and  _101
REMARK   42  A    between atoms: _101  and  _102
REMARK   43  A    between atoms: _107  and  _108
REMARK   44  A    between atoms: _110  and  _112
REMARK   45  A    between atoms: _112  and  _113
REMARK   46  A    between atoms: _115  and  _117
REMARK   47  A    between atoms: _117  and  _118
REMARK   48  A    between atoms: _117  and  _120
REMARK   49  A    between atoms: _120  and  _121
REMARK   50  A    between atoms: _124  and  _126
REMARK   51  A    between atoms: _126  and  _127
REMARK   52  A    between atoms: _126  and  _129
REMARK   53  A    between atoms: _129  and  _130
REMARK   54  A    between atoms: _133  and  _135
REMARK   55  A    between atoms: _135  and  _136
REMARK   56  A    between atoms: _135  and  _138
REMARK   57  A    between atoms: _138  and  _139
REMARK   58  A    between atoms: _139  and  _140
REMARK   59  A    between atoms: _140  and  _141
REMARK   60  A    between atoms: _141  and  _142
REMARK   61  A    between atoms: _146  and  _148
REMARK   62  A    between atoms: _148  and  _149
REMARK   63  A    between atoms: _148  and  _151
REMARK   64  A    between atoms: _151  and  _152
REMARK   65  A    between atoms: _152  and  _153
REMARK   66  A    between atoms: _156  and  _158
REMARK   67  A    between atoms: _158  and  _159
REMARK   68  A    between atoms: _158  and  _161
REMARK   69  A    between atoms: _164  and  _166
REMARK   70  A    between atoms: _166  and  _167
REMARK   71  A    between atoms: _166  and  _169
REMARK   72  A    between atoms: _169  and  _170
REMARK   73  A    between atoms: _172  and  _174
REMARK   74  A    between atoms: _174  and  _175
REMARK   75  A    between atoms: _174  and  _177
REMARK   76  A    between atoms: _177  and  _178
REMARK   77  A    between atoms: _178  and  _179
REMARK   78  A    between atoms: _184  and  _186
REMARK   79  A    between atoms: _186  and  _187
REMARK   80  A    between atoms: _186  and  _189
REMARK   81  A    between atoms: _191  and  _193
REMARK   82  A    between atoms: _193  and  _194
REMARK   83  A    between atoms: _193  and  _196
REMARK   84  A    between atoms: _198  and  _200
REMARK   85  A    between atoms: _200  and  _201
REMARK   86  A    between atoms: _200  and  _203
REMARK   87  A    between atoms: _203  and  _204
REMARK   88  A    between atoms: _207  and  _209
REMARK   89  A    between atoms: _209  and  _210
REMARK   90  A    between atoms: _209  and  _212
REMARK   91  A    between atoms: _212  and  _213
REMARK   92  A    between atoms: _216  and  _218
REMARK   93  A    between atoms: _218  and  _219
REMARK   94  A    between atoms: _218  and  _221
REMARK   95  A    between atoms: _221  and  _222
REMARK   96  A    between atoms: _222  and  _223
REMARK   97  A    between atoms: _223  and  _224
REMARK   98  A    between atoms: _224  and  _225
REMARK   99  A    between atoms: _229  and  _231
REMARK  100  A    between atoms: _231  and  _232
REMARK  101  A    between atoms: _231  and  _234
REMARK  102  A    between atoms: _234  and  _235
REMARK  103  A    between atoms: _240  and  _242
REMARK  104  A    between atoms: _242  and  _243
REMARK  105  A    between atoms: _242  and  _245
REMARK  106  A    between atoms: _245  and  _246
REMARK  107  A    between atoms: _251  and  _252
REMARK  108  A    between atoms: _254  and  _256
REMARK  109  A    between atoms: _256  and  _257
REMARK  110  A    between atoms: _256  and  _259
REMARK  111  A    between atoms: _262  and  _264
REMARK  112  A    between atoms: _264  and  _265
REMARK  113  A    between atoms: _264  and  _267
REMARK  114  A    between atoms: _267  and  _268
REMARK  115  A    between atoms: _268  and  _269
REMARK  116  A    between atoms: _269  and  _270
REMARK  117  A    between atoms: _270  and  _271
REMARK  118  A    between atoms: _275  and  _277
REMARK  119  A    between atoms: _277  and  _278
REMARK  120  A    between atoms: _277  and  _280
REMARK  121  A    between atoms: _280  and  _281
REMARK  122  A    between atoms: _284  and  _286
REMARK  123  A    between atoms: _286  and  _287
REMARK  124  A    between atoms: _286  and  _289
REMARK  125  A    between atoms: _289  and  _290
REMARK  126  A    between atoms: _290  and  _291
REMARK  127  A    between atoms: _291  and  _292
REMARK  128  A    between atoms: _292  and  _293
REMARK                            x       y       z     vdW  Elec       q    Type
REMARK                         _______ _______ _______ _____ _____    ______ ____
ROOT
ATOM      1  C   LEU A   1      14.853  37.125  42.759  0.00  0.00    +0.238 C 
ATOM      2  O   LEU A   1      14.102  36.902  43.711  0.00  0.00    -0.274 OA
ATOM      3  N   LEU A   2      15.494  36.179  42.078  0.00  0.00    -0.298 N 
ATOM      4  H   LEU A   2      15.941  36.426  41.172  0.00  0.00    +0.150 HD
ENDROOT
BRANCH   1   5
ATOM      5  CA  LEU A   1      15.094  38.552  42.299  0.00  0.00    +0.145 C 
BRANCH   5   6
ATOM      6  N   LEU A   1      13.846  39.304  42.239  0.00  0.00    -0.238 NA
ATOM      7  H   LEU A   1      13.015  38.966  42.764  0.00  0.00    +0.142 HD
ENDBRANCH   5   6
BRANCH   5   8
ATOM      8  CB  LEU A   1      16.061  39.237  43.271  0.00  0.00    +0.026 C 
BRANCH   8   9
ATOM      9  CG  LEU A   1      17.357  38.501  43.622  0.00  0.00    +0.002 C 
ATOM     10  CD2 LEU A   1      18.063  39.202  44.775  0.00  0.00    +0.000 C 
ATOM     11  CD1 LEU A   1      18.266  38.440  42.394  0.00  0.00    +0.000 C 
ENDBRANCH   8   9
ENDBRANCH   5   8
ENDBRANCH   1   5
BRANCH   3  12
ATOM     12  CA  LEU A   2      15.591  34.798  42.564  0.00  0.00    +0.137 C 
BRANCH  12  13
ATOM     13  C   LEU A   2      17.045  34.546  42.952  0.00  0.00    +0.227 C 
ATOM     14  O   LEU A   2      17.946  34.719  42.124  0.00  0.00    -0.286 OA
ENDBRANCH  12  13
BRANCH  12  15
ATOM     15  CB  LEU A   2      15.159  33.816  41.471  0.00  0.00    +0.028 C 
BRANCH  15  16
ATOM     16  CG  LEU A   2      15.567  32.350  41.639  0.00  0.00    +0.002 C 
ATOM     17  CD2 LEU A   2      14.899  31.736  42.868  0.00  0.00    +0.000 C 
ATOM     18  CD1 LEU A   2      15.203  31.554  40.387  0.00  0.00    +0.000 C 
ENDBRANCH  15  16
ENDBRANCH  12  15
ENDBRANCH   3  12
TORSDOF 8
REMARK  Name = ../refined-set-2016/4g0y/4g0y_pocket.pdb
REMARK  128 active torsions:
REMARK  status: ('A' for Active; 'I' for Inactive)
REMARK    1  A    between atoms: _1  and  _3
REMARK    2  A    between atoms: _3  and  _4
REMARK    3  A    between atoms: _3  and  _6
REMARK    4  A    between atoms: _6  and  _7
REMARK    5  A    between atoms: _10  and  _12
REMARK    6  A    between atoms: _12  and  _13
REMARK    7  A    between atoms: _12  and  _15
REMARK    8  A    between atoms: _15  and  _16
REMARK    9  A    between atoms: _19  and  _21
REMARK   10  A    between atoms: _21  and  _22
REMARK   11  A    between atoms: _21  and  _24
REMARK   12  A    between atoms: _27  and  _29
REMARK   13  A    between atoms: _29  and  _30
REMARK   14  A    between atoms: _29  and  _32
REMARK   15  A    between atoms: _32  and  _33
REMARK   16  A    between atoms: _37  and  _38
REMARK   17  A    between atoms: _43  and  _45
REMARK   18  A    between atoms: _45  and  _46
REMARK   19  A    between atoms: _45  and  _48
REMARK   20  A    between atoms: _48  and  _49
REMARK   21  A    between atoms: _52  and  _54
REMARK   22  A    between atoms: _54  and  _55
REMARK   23  A    between atoms: _54  and  _57
REMARK   24  A    between atoms: _57  and  _58
REMARK   25  A    between atoms: _63  and  _65
REMARK   26  A    between atoms: _65  and  _66
REMARK   27  A    between atoms: _65  and  _68
REMARK   28  A    between atoms: _68  and  _69
REMARK   29  A    between atoms: _74  and  _76
REMARK   30  A    between atoms: _76  and  _77
REMARK   31  A    between atoms: _79  and  _81
REMARK   32  A    between atoms: _81  and  _82
REMARK   33  A    between atoms: _81  and  _84
REMARK   34  A    between atoms: _84  and  _85
REMARK   35  A    between atoms: _87  and  _89
REMARK   36  A    between atoms: _89  and  _90
REMARK   37  A    between atoms: _89  and  _92
REMARK   38  A    between atoms: _92  and  _93
REMARK   39  A    between atoms: _96  and  _98
REMARK   40  A    between atoms: _98  and  _99
REMARK   41  A    between atoms: _98  and  _101
REMARK   42  A    between atoms: _101  and  _102
REMARK   43  A    between atoms: _107  and  _108
REMARK   44  A    between atoms: _110  and  _112
REMARK   45  A    between atoms: _112  and  _113
REMARK   46  A    between atoms: _115  and  _117
REMARK   47  A    between atoms: _117  and  _118
REMARK   48  A    between atoms: _117  and  _120
REMARK   49  A    between atoms: _120  and  _121
REMARK   50  A    between atoms: _124  and  _126
REMARK   51  A    between atoms: _126  and  _127
REMARK   52  A    between atoms: _126  and  _129
REMARK   53  A    between atoms: _129  and  _130
REMARK   54  A    between atoms: _133  and  _135
REMARK   55  A    between atoms: _135  and  _136
REMARK   56  A    between atoms: _135  and  _138
REMARK   57  A    between atoms: _138  and  _139
REMARK   58  A    between atoms: _139  and  _140
REMARK   59  A    between atoms: _140  and  _141
REMARK   60  A    between atoms: _141  and  _142
REMARK   61  A    between atoms: _146  and  _148
REMARK   62  A    between atoms: _148  and  _149
REMARK   63  A    between atoms: _148  and  _151
REMARK   64  A    between atoms: _151  and  _152
REMARK   65  A    between atoms: _152  and  _153
REMARK   66  A    between atoms: _156  and  _158
REMARK   67  A    between atoms: _158  and  _159
REMARK   68  A    between atoms: _158  and  _161
REMARK   69  A    between atoms: _164  and  _166
REMARK   70  A    between atoms: _166  and  _167
REMARK   71  A    between atoms: _166  and  _169
REMARK   72  A    between atoms: _169  and  _170
REMARK   73  A    between atoms: _172  and  _174
REMARK   74  A    between atoms: _174  and  _175
REMARK   75  A    between atoms: _174  and  _177
REMARK   76  A    between atoms: _177  and  _178
REMARK   77  A    between atoms: _178  and  _179
REMARK   78  A    between atoms: _184  and  _186
REMARK   79  A    between atoms: _186  and  _187
REMARK   80  A    between atoms: _186  and  _189
REMARK   81  A    between atoms: _191  and  _193
REMARK   82  A    between atoms: _193  and  _194
REMARK   83  A    between atoms: _193  and  _196
REMARK   84  A    between atoms: _198  and  _200
REMARK   85  A    between atoms: _200  and  _201
REMARK   86  A    between atoms: _200  and  _203
REMARK   87  A    between atoms: _203  and  _204
REMARK   88  A    between atoms: _207  and  _209
REMARK   89  A    between atoms: _209  and  _210
REMARK   90  A    between atoms: _209  and  _212
REMARK   91  A    between atoms: _212  and  _213
REMARK   92  A    between atoms: _216  and  _218
REMARK   93  A    between atoms: _218  and  _219
REMARK   94  A    between atoms: _218  and  _221
REMARK   95  A    between atoms: _221  and  _222
REMARK   96  A    between atoms: _222  and  _223
REMARK   97  A    between atoms: _223  and  _224
REMARK   98  A    between atoms: _224  and  _225
REMARK   99  A    between atoms: _229  and  _231
REMARK  100  A    between atoms: _231  and  _232
REMARK  101  A    between atoms: _231  and  _234
REMARK  102  A    between atoms: _234  and  _235
REMARK  103  A    between atoms: _240  and  _242
REMARK  104  A    between atoms: _242  and  _243
REMARK  105  A    between atoms: _242  and  _245
REMARK  106  A    between atoms: _245  and  _246
REMARK  107  A    between atoms: _251  and  _252
REMARK  108  A    between atoms: _254  and  _256
REMARK  109  A    between atoms: _256  and  _257
REMARK  110  A    between atoms: _256  and  _259
REMARK  111  A    between atoms: _262  and  _264
REMARK  112  A    between atoms: _264  and  _265
REMARK  113  A    between atoms: _264  and  _267
REMARK  114  A    between atoms: _267  and  _268
REMARK  115  A    between atoms: _268  and  _269
REMARK  116  A    between atoms: _269  and  _270
REMARK  117  A    between atoms: _270  and  _271
REMARK  118  A    between atoms: _275  and  _277
REMARK  119  A    between atoms: _277  and  _278
REMARK  120  A    between atoms: _277  and  _280
REMARK  121  A    between atoms: _280  and  _281
REMARK  122  A    between atoms: _284  and  _286
REMARK  123  A    between atoms: _286  and  _287
REMARK  124  A    between atoms: _286  and  _289
REMARK  125  A    between atoms: _289  and  _290
REMARK  126  A    between atoms: _290  and  _291
REMARK  127  A    between atoms: _291  and  _292
REMARK  128  A    between atoms: _292  and  _293
REMARK                            x       y       z     vdW  Elec       q    Type
REMARK                         _______ _______ _______ _____ _____    ______ ____
ROOT
ATOM      1  CA  VAL A   1      19.788  30.224  43.757  0.00  0.00    +0.133 C 
ENDROOT
BRANCH   1   2
ATOM      2  CB  VAL A   1      19.797  29.750  42.275  0.00  0.00    +0.023 C 
ATOM      3  CG2 VAL A   1      19.789  28.213  42.201  0.00  0.00    +0.002 C 
ATOM      4  CG1 VAL A   1      18.588  30.287  41.524  0.00  0.00    +0.002 C 
ENDBRANCH   1   2
BRANCH   1   5
ATOM      5  N   VAL A   1      19.660  31.678  43.884  0.00  0.00    -0.239 NA
ATOM      6  H   VAL A   1      20.355  32.298  43.421  0.00  0.00    +0.142 HD
ENDBRANCH   1   5
BRANCH   1   7
ATOM      7  C   VAL A   1      21.071  29.756  44.403  0.00  0.00    +0.224 C 
ATOM      8  O   VAL A   1      22.143  30.273  44.101  0.00  0.00    -0.287 OA
ENDBRANCH   1   7
TORSDOF 3
REMARK  Name = ../refined-set-2016/4g0y/4g0y_pocket.pdb
REMARK  128 active torsions:
REMARK  status: ('A' for Active; 'I' for Inactive)
REMARK    1  A    between atoms: _1  and  _3
REMARK    2  A    between atoms: _3  and  _4
REMARK    3  A    between atoms: _3  and  _6
REMARK    4  A    between atoms: _6  and  _7
REMARK    5  A    between atoms: _10  and  _12
REMARK    6  A    between atoms: _12  and  _13
REMARK    7  A    between atoms: _12  and  _15
REMARK    8  A    between atoms: _15  and  _16
REMARK    9  A    between atoms: _19  and  _21
REMARK   10  A    between atoms: _21  and  _22
REMARK   11  A    between atoms: _21  and  _24
REMARK   12  A    between atoms: _27  and  _29
REMARK   13  A    between atoms: _29  and  _30
REMARK   14  A    between atoms: _29  and  _32
REMARK   15  A    between atoms: _32  and  _33
REMARK   16  A    between atoms: _37  and  _38
REMARK   17  A    between atoms: _43  and  _45
REMARK   18  A    between atoms: _45  and  _46
REMARK   19  A    between atoms: _45  and  _48
REMARK   20  A    between atoms: _48  and  _49
REMARK   21  A    between atoms: _52  and  _54
REMARK   22  A    between atoms: _54  and  _55
REMARK   23  A    between atoms: _54  and  _57
REMARK   24  A    between atoms: _57  and  _58
REMARK   25  A    between atoms: _63  and  _65
REMARK   26  A    between atoms: _65  and  _66
REMARK   27  A    between atoms: _65  and  _68
REMARK   28  A    between atoms: _68  and  _69
REMARK   29  A    between atoms: _74  and  _76
REMARK   30  A    between atoms: _76  and  _77
REMARK   31  A    between atoms: _79  and  _81
REMARK   32  A    between atoms: _81  and  _82
REMARK   33  A    between atoms: _81  and  _84
REMARK   34  A    between atoms: _84  and  _85
REMARK   35  A    between atoms: _87  and  _89
REMARK   36  A    between atoms: _89  and  _90
REMARK   37  A    between atoms: _89  and  _92
REMARK   38  A    between atoms: _92  and  _93
REMARK   39  A    between atoms: _96  and  _98
REMARK   40  A    between atoms: _98  and  _99
REMARK   41  A    between atoms: _98  and  _101
REMARK   42  A    between atoms: _101  and  _102
REMARK   43  A    between atoms: _107  and  _108
REMARK   44  A    between atoms: _110  and  _112
REMARK   45  A    between atoms: _112  and  _113
REMARK   46  A    between atoms: _115  and  _117
REMARK   47  A    between atoms: _117  and  _118
REMARK   48  A    between atoms: _117  and  _120
REMARK   49  A    between atoms: _120  and  _121
REMARK   50  A    between atoms: _124  and  _126
REMARK   51  A    between atoms: _126  and  _127
REMARK   52  A    between atoms: _126  and  _129
REMARK   53  A    between atoms: _129  and  _130
REMARK   54  A    between atoms: _133  and  _135
REMARK   55  A    between atoms: _135  and  _136
REMARK   56  A    between atoms: _135  and  _138
REMARK   57  A    between atoms: _138  and  _139
REMARK   58  A    between atoms: _139  and  _140
REMARK   59  A    between atoms: _140  and  _141
REMARK   60  A    between atoms: _141  and  _142
REMARK   61  A    between atoms: _146  and  _148
REMARK   62  A    between atoms: _148  and  _149
REMARK   63  A    between atoms: _148  and  _151
REMARK   64  A    between atoms: _151  and  _152
REMARK   65  A    between atoms: _152  and  _153
REMARK   66  A    between atoms: _156  and  _158
REMARK   67  A    between atoms: _158  and  _159
REMARK   68  A    between atoms: _158  and  _161
REMARK   69  A    between atoms: _164  and  _166
REMARK   70  A    between atoms: _166  and  _167
REMARK   71  A    between atoms: _166  and  _169
REMARK   72  A    between atoms: _169  and  _170
REMARK   73  A    between atoms: _172  and  _174
REMARK   74  A    between atoms: _174  and  _175
REMARK   75  A    between atoms: _174  and  _177
REMARK   76  A    between atoms: _177  and  _178
REMARK   77  A    between atoms: _178  and  _179
REMARK   78  A    between atoms: _184  and  _186
REMARK   79  A    between atoms: _186  and  _187
REMARK   80  A    between atoms: _186  and  _189
REMARK   81  A    between atoms: _191  and  _193
REMARK   82  A    between atoms: _193  and  _194
REMARK   83  A    between atoms: _193  and  _196
REMARK   84  A    between atoms: _198  and  _200
REMARK   85  A    between atoms: _200  and  _201
REMARK   86  A    between atoms: _200  and  _203
REMARK   87  A    between atoms: _203  and  _204
REMARK   88  A    between atoms: _207  and  _209
REMARK   89  A    between atoms: _209  and  _210
REMARK   90  A    between atoms: _209  and  _212
REMARK   91  A    between atoms: _212  and  _213
REMARK   92  A    between atoms: _216  and  _218
REMARK   93  A    between atoms: _218  and  _219
REMARK   94  A    between atoms: _218  and  _221
REMARK   95  A    between atoms: _221  and  _222
REMARK   96  A    between atoms: _222  and  _223
REMARK   97  A    between atoms: _223  and  _224
REMARK   98  A    between atoms: _224  and  _225
REMARK   99  A    between atoms: _229  and  _231
REMARK  100  A    between atoms: _231  and  _232
REMARK  101  A    between atoms: _231  and  _234
REMARK  102  A    between atoms: _234  and  _235
REMARK  103  A    between atoms: _240  and  _242
REMARK  104  A    between atoms: _242  and  _243
REMARK  105  A    between atoms: _242  and  _245
REMARK  106  A    between atoms: _245  and  _246
REMARK  107  A    between atoms: _251  and  _252
REMARK  108  A    between atoms: _254  and  _256
REMARK  109  A    between atoms: _256  and  _257
REMARK  110  A    between atoms: _256  and  _259
REMARK  111  A    between atoms: _262  and  _264
REMARK  112  A    between atoms: _264  and  _265
REMARK  113  A    between atoms: _264  and  _267
REMARK  114  A    between atoms: _267  and  _268
REMARK  115  A    between atoms: _268  and  _269
REMARK  116  A    between atoms: _269  and  _270
REMARK  117  A    between atoms: _270  and  _271
REMARK  118  A    between atoms: _275  and  _277
REMARK  119  A    between atoms: _277  and  _278
REMARK  120  A    between atoms: _277  and  _280
REMARK  121  A    between atoms: _280  and  _281
REMARK  122  A    between atoms: _284  and  _286
REMARK  123  A    between atoms: _286  and  _287
REMARK  124  A    between atoms: _286  and  _289
REMARK  125  A    between atoms: _289  and  _290
REMARK  126  A    between atoms: _290  and  _291
REMARK  127  A    between atoms: _291  and  _292
REMARK  128  A    between atoms: _292  and  _293
REMARK                            x       y       z     vdW  Elec       q    Type
REMARK                         _______ _______ _______ _____ _____    ______ ____
ROOT
ATOM      1  C   SER A   7      22.969  22.537  33.868  0.00  0.00    +0.243 C 
ATOM      2  N   LEU A   8      23.014  22.441  35.193  0.00  0.00    -0.297 N 
ATOM      3  H   LEU A   8      23.747  21.854  35.640  0.00  0.00    +0.150 HD
ATOM      4  O   SER A   7      22.207  23.298  33.283  0.00  0.00    -0.273 OA
ENDROOT
BRANCH   2   5
ATOM      5  CA  LEU A   8      22.046  23.151  36.031  0.00  0.00    +0.149 C 
BRANCH   5   6
ATOM      6  C   LEU A   8      22.120  24.663  35.851  0.00  0.00    +0.241 C 
ATOM      7  N   TYR A   9      23.326  25.219  35.909  0.00  0.00    -0.297 N 
ATOM      8  H   TYR A   9      24.161  24.620  36.069  0.00  0.00    +0.150 HD
ATOM      9  O   LEU A   8      21.093  25.318  35.674  0.00  0.00    -0.273 OA
BRANCH   7  10
ATOM     10  CA  TYR A   9      23.492  26.667  35.750  0.00  0.00    +0.153 C 
BRANCH  10  11
ATOM     11  C   TYR A   9      22.842  27.177  34.447  0.00  0.00    +0.241 C 
ATOM     12  O   TYR A   9      22.062  28.140  34.458  0.00  0.00    -0.273 OA
ATOM     13  N   GLY A  10      23.165  26.535  33.329  0.00  0.00    -0.295 N 
ATOM     14  H   GLY A  10      23.814  25.724  33.377  0.00  0.00    +0.150 HD
BRANCH  13  15
ATOM     15  CA  GLY A  10      22.630  26.943  32.040  0.00  0.00    +0.176 C 
BRANCH  15  16
ATOM     16  C   GLY A  10      21.126  26.748  31.926  0.00  0.00    +0.243 C 
ATOM     17  N   ASP A  11      20.619  25.653  32.485  0.00  0.00    -0.296 N 
ATOM     18  H   ASP A  11      21.259  24.958  32.921  0.00  0.00    +0.150 HD
ATOM     19  O   GLY A  10      20.428  27.572  31.323  0.00  0.00    -0.273 OA
BRANCH  17  20
ATOM     20  CA  ASP A  11      19.173  25.409  32.497  0.00  0.00    +0.160 C 
BRANCH  20  21
ATOM     21  C   ASP A  11      18.471  26.513  33.278  0.00  0.00    +0.241 C 
ATOM     22  N   LEU A  12      19.023  26.819  34.443  0.00  0.00    -0.297 N 
ATOM     23  H   LEU A  12      19.865  26.289  34.747  0.00  0.00    +0.150 HD
ATOM     24  O   ASP A  11      17.478  27.078  32.832  0.00  0.00    -0.273 OA
BRANCH  22  25
ATOM     25  CA  LEU A  12      18.508  27.858  35.314  0.00  0.00    +0.149 C 
BRANCH  25  26
ATOM     26  C   LEU A  12      18.414  29.177  34.557  0.00  0.00    +0.241 C 
ATOM     27  O   LEU A  12      17.373  29.850  34.560  0.00  0.00    -0.273 OA
ATOM     28  N   LYS A  13      19.510  29.551  33.909  0.00  0.00    -0.298 N 
ATOM     29  H   LYS A  13      20.333  28.916  33.875  0.00  0.00    +0.150 HD
BRANCH  28  30
ATOM     30  CA  LYS A  13      19.568  30.848  33.244  0.00  0.00    +0.137 C 
BRANCH  30  31
ATOM     31  C   LYS A  13      18.625  30.909  32.049  0.00  0.00    +0.227 C 
ATOM     32  O   LYS A  13      17.979  31.921  31.812  0.00  0.00    -0.286 OA
ENDBRANCH  30  31
BRANCH  30  33
ATOM     33  CB  LYS A  13      21.002  31.170  32.817  0.00  0.00    +0.028 C 
BRANCH  33  34
ATOM     34  CG  LYS A  13      21.932  31.451  33.996  0.00  0.00    -0.000 C 
BRANCH  34  35
ATOM     35  CD  LYS A  13      21.456  32.659  34.788  0.00  0.00    -0.024 C 
BRANCH  35  36
ATOM     36  CE  LYS A  13      22.372  32.919  35.975  0.00  0.00    -0.086 C 
BRANCH  36  37
ATOM     37  NZ  LYS A  13      21.980  34.153  36.725  0.00  0.00    +0.380 N 
ATOM     38  HZ1 LYS A  13      22.630  34.292  37.525  0.00  0.00    -0.089 HD
ATOM     39  HZ2 LYS A  13      21.008  34.047  37.081  0.00  0.00    -0.089 HD
ATOM     40  HZ3 LYS A  13      22.030  34.974  36.089  0.00  0.00    -0.089 HD
ENDBRANCH  36  37
ENDBRANCH  35  36
ENDBRANCH  34  35
ENDBRANCH  33  34
ENDBRANCH  30  33
ENDBRANCH  28  30
ENDBRANCH  25  26
BRANCH  25  41
ATOM     41  CB  LEU A  12      19.477  28.005  36.491  0.00  0.00    +0.029 C 
BRANCH  41  42
ATOM     42  CG  LEU A  12      19.067  28.564  37.842  0.00  0.00    +0.002 C 
ATOM     43  CD2 LEU A  12      17.941  27.739  38.496  0.00  0.00    +0.000 C 
ATOM     44  CD1 LEU A  12      18.715  30.029  37.702  0.00  0.00    +0.000 C 
ENDBRANCH  41  42
ENDBRANCH  25  41
ENDBRANCH  22  25
ENDBRANCH  20  21
BRANCH  20  45
ATOM     45  CB  ASP A  11      18.850  24.050  33.123  0.00  0.00    +0.143 C 
BRANCH  45  46
ATOM     46  CG  ASP A  11      19.305  22.887  32.264  0.00  0.00    +0.367 C 
ATOM     47  OD2 ASP A  11      19.353  21.753  32.792  0.00  0.00    -0.246 OA
ATOM     48  OD1 ASP A  11      19.622  23.112  31.077  0.00  0.00    -0.246 OA
ENDBRANCH  45  46
ENDBRANCH  20  45
ENDBRANCH  17  20
ENDBRANCH  15  16
ENDBRANCH  13  15
ENDBRANCH  10  11
BRANCH  10  49
ATOM     49  CB  TYR A   9      24.971  27.054  35.822  0.00  0.00    +0.055 C 
BRANCH  49  50
ATOM     50  CG  TYR A   9      25.221  28.539  35.646  0.00  0.00    -0.020 A 
ATOM     51  CD2 TYR A   9      25.201  29.403  36.732  0.00  0.00    -0.001 A 
ATOM     52  CE2 TYR A   9      25.420  30.765  36.567  0.00  0.00    +0.036 A 
ATOM     53  CZ  TYR A   9      25.669  31.258  35.300  0.00  0.00    +0.134 A 
ATOM     54  CE1 TYR A   9      25.699  30.415  34.214  0.00  0.00    +0.036 A 
ATOM     55  CD1 TYR A   9      25.475  29.069  34.390  0.00  0.00    -0.001 A 
BRANCH  53  56
ATOM     56  OH  TYR A   9      25.895  32.596  35.095  0.00  0.00    -0.506 OA
ATOM     57  HH  TYR A   9      25.105  33.112  35.393  0.00  0.00    +0.292 HD
ENDBRANCH  53  56
ENDBRANCH  49  50
ENDBRANCH  10  49
ENDBRANCH   7  10
ENDBRANCH   5   6
BRANCH   5  58
ATOM     58  CB  LEU A   8      22.223  22.779  37.504  0.00  0.00    +0.029 C 
BRANCH  58  59
ATOM     59  CG  LEU A   8      21.303  23.481  38.502  0.00  0.00    +0.002 C 
ATOM     60  CD2 LEU A   8      21.662  23.046  39.928  0.00  0.00    +0.000 C 
ATOM     61  CD1 LEU A   8      19.826  23.218  38.206  0.00  0.00    +0.000 C 
ENDBRANCH  58  59
ENDBRANCH   5  58
ENDBRANCH   2   5
BRANCH   1  62
ATOM     62  CA  SER A   7      23.915  21.639  33.073  0.00  0.00    +0.178 C 
BRANCH  62  65
ATOM     63  C   GLY A   6      25.947  21.334  34.390  0.00  0.00    +0.243 C 
ATOM     64  O   GLY A   6      26.293  22.504  34.229  0.00  0.00    -0.273 OA
ATOM     65  N   SER A   7      24.797  20.844  33.928  0.00  0.00    -0.295 N 
ATOM     66  H   SER A   7      24.520  19.874  34.181  0.00  0.00    +0.150 HD
BRANCH  63  67
ATOM     67  CA  GLY A   6      26.837  20.375  35.159  0.00  0.00    +0.176 C 
BRANCH  67  70
ATOM     68  C   ASN A   5      26.121  20.992  37.384  0.00  0.00    +0.241 C 
ATOM     69  O   ASN A   5      24.935  20.861  37.065  0.00  0.00    -0.273 OA
ATOM     70  N   GLY A   6      27.113  20.820  36.515  0.00  0.00    -0.295 N 
ATOM     71  H   GLY A   6      28.094  21.005  36.808  0.00  0.00    +0.150 HD
BRANCH  68  72
ATOM     72  CA  ASN A   5      26.504  21.344  38.826  0.00  0.00    +0.158 C 
BRANCH  72  75
ATOM     73  C   ASN A   4      28.558  20.862  40.031  0.00  0.00    +0.241 C 
ATOM     74  O   ASN A   4      28.049  19.899  40.603  0.00  0.00    -0.273 OA
ATOM     75  N   ASN A   5      27.930  21.546  39.078  0.00  0.00    -0.297 N 
ATOM     76  H   ASN A   5      28.460  22.233  38.505  0.00  0.00    +0.150 HD
BRANCH  73  77
ATOM     77  CA  ASN A   4      29.961  21.322  40.392  0.00  0.00    +0.158 C 
BRANCH  77  79
ATOM     78  C   ASP A   3      30.143  23.162  41.993  0.00  0.00    +0.241 C 
ATOM     79  N   ASN A   4      29.934  21.869  41.748  0.00  0.00    -0.297 N 
ATOM     80  H   ASN A   4      29.746  21.229  42.546  0.00  0.00    +0.150 HD
ATOM     81  O   ASP A   3      30.486  23.958  41.125  0.00  0.00    -0.273 OA
BRANCH  78  82
ATOM     82  CA  ASP A   3      29.950  23.633  43.433  0.00  0.00    +0.160 C 
BRANCH  82  84
ATOM     83  C   PRO A   2      27.543  23.258  43.432  0.00  0.00    +0.241 C 
ATOM     84  N   ASP A   3      28.725  23.113  44.024  0.00  0.00    -0.297 N 
ATOM     85  H   ASP A   3      28.776  22.614  44.935  0.00  0.00    +0.150 HD
ATOM     86  O   PRO A   2      27.397  23.808  42.334  0.00  0.00    -0.273 OA
BRANCH  83  90
ATOM     87  C   LEU A   1      25.145  24.826  44.139  0.00  0.00    +0.241 C 
ATOM     88  O   LEU A   1      26.059  25.409  44.723  0.00  0.00    -0.273 OA
ATOM     89  N   PRO A   2      25.155  23.509  43.886  0.00  0.00    -0.272 N 
ATOM     90  CA  PRO A   2      26.339  22.699  44.180  0.00  0.00    +0.152 C 
ATOM     91  CB  PRO A   2      25.973  21.317  43.627  0.00  0.00    +0.031 C 
ATOM     92  CG  PRO A   2      24.484  21.309  43.531  0.00  0.00    +0.024 C 
ATOM     93  CD  PRO A   2      24.081  22.729  43.252  0.00  0.00    +0.094 C 
BRANCH  87  94
ATOM     94  CA  LEU A   1      23.966  25.612  43.595  0.00  0.00    +0.145 C 
BRANCH  94  95
ATOM     95  N   LEU A   1      23.625  26.721  44.492  0.00  0.00    -0.238 NA
ATOM     96  H   LEU A   1      24.354  27.425  44.725  0.00  0.00    +0.142 HD
ENDBRANCH  94  95
BRANCH  94  97
ATOM     97  CB  LEU A   1      24.404  26.133  42.217  0.00  0.00    +0.026 C 
BRANCH  97  98
ATOM     98  CG  LEU A   1      23.506  26.949  41.300  0.00  0.00    +0.002 C 
ATOM     99  CD2 LEU A   1      22.275  26.160  40.920  0.00  0.00    +0.000 C 
ATOM    100  CD1 LEU A   1      24.290  27.333  40.055  0.00  0.00    +0.000 C 
ENDBRANCH  97  98
ENDBRANCH  94  97
ENDBRANCH  87  94
ENDBRANCH  83  90
ENDBRANCH  82  84
BRANCH  82 101
ATOM    101  CB  ASP A   3      31.165  23.253  44.290  0.00  0.00    +0.143 C 
BRANCH 101 102
ATOM    102  CG  ASP A   3      31.129  23.890  45.676  0.00  0.00    +0.367 C 
ATOM    103  OD2 ASP A   3      31.730  23.314  46.610  0.00  0.00    -0.246 OA
ATOM    104  OD1 ASP A   3      30.505  24.968  45.833  0.00  0.00    -0.246 OA
ENDBRANCH 101 102
ENDBRANCH  82 101
ENDBRANCH  78  82
ENDBRANCH  77  79
BRANCH  77 105
ATOM    105  CB  ASN A   4      30.944  20.144  40.274  0.00  0.00    +0.114 C 
BRANCH 105 106
ATOM    106  CG  ASN A   4      32.400  20.574  40.370  0.00  0.00    +0.222 C 
ATOM    107  ND2 ASN A   4      33.007  20.346  41.528  0.00  0.00    -0.329 N 
ATOM    108 HD21 ASN A   4      32.484  19.904  42.311  0.00  0.00    +0.145 HD
ATOM    109 HD22 ASN A   4      34.006  20.609  41.652  0.00  0.00    +0.145 HD
ATOM    110  OD1 ASN A   4      32.975  21.095  39.410  0.00  0.00    -0.275 OA
ENDBRANCH 105 106
ENDBRANCH  77 105
ENDBRANCH  73  77
ENDBRANCH  72  75
BRANCH  72 111
ATOM    111  CB  ASN A   5      25.708  22.566  39.293  0.00  0.00    +0.114 C 
BRANCH 111 112
ATOM    112  CG  ASN A   5      26.117  23.828  38.575  0.00  0.00    +0.222 C 
ATOM    113  ND2 ASN A   5      26.899  24.664  39.245  0.00  0.00    -0.329 N 
ATOM    114 HD21 ASN A   5      27.198  24.433  40.214  0.00  0.00    +0.145 HD
ATOM    115 HD22 ASN A   5      27.213  25.551  38.802  0.00  0.00    +0.145 HD
ATOM    116  OD1 ASN A   5      25.733  24.051  37.427  0.00  0.00    -0.275 OA
ENDBRANCH 111 112
ENDBRANCH  72 111
ENDBRANCH  68  72
ENDBRANCH  67  70
ENDBRANCH  63  67
ENDBRANCH  62  65
BRANCH  62 117
ATOM    117  CB  SER A   7      23.094  20.735  32.150  0.00  0.00    +0.166 C 
BRANCH 117 118
ATOM    118  OG  SER A   7      22.091  20.031  32.867  0.00  0.00    -0.380 OA
ATOM    119  H   SER A   7      22.517  19.467  33.560  0.00  0.00    +0.211 HD
ENDBRANCH 117 118
ENDBRANCH  62 117
ENDBRANCH   1  62
TORSDOF 49
REMARK  Name = ../refined-set-2016/4g0y/4g0y_pocket.pdb
REMARK  128 active torsions:
REMARK  status: ('A' for Active; 'I' for Inactive)
REMARK    1  A    between atoms: _1  and  _3
REMARK    2  A    between atoms: _3  and  _4
REMARK    3  A    between atoms: _3  and  _6
REMARK    4  A    between atoms: _6  and  _7
REMARK    5  A    between atoms: _10  and  _12
REMARK    6  A    between atoms: _12  and  _13
REMARK    7  A    between atoms: _12  and  _15
REMARK    8  A    between atoms: _15  and  _16
REMARK    9  A    between atoms: _19  and  _21
REMARK   10  A    between atoms: _21  and  _22
REMARK   11  A    between atoms: _21  and  _24
REMARK   12  A    between atoms: _27  and  _29
REMARK   13  A    between atoms: _29  and  _30
REMARK   14  A    between atoms: _29  and  _32
REMARK   15  A    between atoms: _32  and  _33
REMARK   16  A    between atoms: _37  and  _38
REMARK   17  A    between atoms: _43  and  _45
REMARK   18  A    between atoms: _45  and  _46
REMARK   19  A    between atoms: _45  and  _48
REMARK   20  A    between atoms: _48  and  _49
REMARK   21  A    between atoms: _52  and  _54
REMARK   22  A    between atoms: _54  and  _55
REMARK   23  A    between atoms: _54  and  _57
REMARK   24  A    between atoms: _57  and  _58
REMARK   25  A    between atoms: _63  and  _65
REMARK   26  A    between atoms: _65  and  _66
REMARK   27  A    between atoms: _65  and  _68
REMARK   28  A    between atoms: _68  and  _69
REMARK   29  A    between atoms: _74  and  _76
REMARK   30  A    between atoms: _76  and  _77
REMARK   31  A    between atoms: _79  and  _81
REMARK   32  A    between atoms: _81  and  _82
REMARK   33  A    between atoms: _81  and  _84
REMARK   34  A    between atoms: _84  and  _85
REMARK   35  A    between atoms: _87  and  _89
REMARK   36  A    between atoms: _89  and  _90
REMARK   37  A    between atoms: _89  and  _92
REMARK   38  A    between atoms: _92  and  _93
REMARK   39  A    between atoms: _96  and  _98
REMARK   40  A    between atoms: _98  and  _99
REMARK   41  A    between atoms: _98  and  _101
REMARK   42  A    between atoms: _101  and  _102
REMARK   43  A    between atoms: _107  and  _108
REMARK   44  A    between atoms: _110  and  _112
REMARK   45  A    between atoms: _112  and  _113
REMARK   46  A    between atoms: _115  and  _117
REMARK   47  A    between atoms: _117  and  _118
REMARK   48  A    between atoms: _117  and  _120
REMARK   49  A    between atoms: _120  and  _121
REMARK   50  A    between atoms: _124  and  _126
REMARK   51  A    between atoms: _126  and  _127
REMARK   52  A    between atoms: _126  and  _129
REMARK   53  A    between atoms: _129  and  _130
REMARK   54  A    between atoms: _133  and  _135
REMARK   55  A    between atoms: _135  and  _136
REMARK   56  A    between atoms: _135  and  _138
REMARK   57  A    between atoms: _138  and  _139
REMARK   58  A    between atoms: _139  and  _140
REMARK   59  A    between atoms: _140  and  _141
REMARK   60  A    between atoms: _141  and  _142
REMARK   61  A    between atoms: _146  and  _148
REMARK   62  A    between atoms: _148  and  _149
REMARK   63  A    between atoms: _148  and  _151
REMARK   64  A    between atoms: _151  and  _152
REMARK   65  A    between atoms: _152  and  _153
REMARK   66  A    between atoms: _156  and  _158
REMARK   67  A    between atoms: _158  and  _159
REMARK   68  A    between atoms: _158  and  _161
REMARK   69  A    between atoms: _164  and  _166
REMARK   70  A    between atoms: _166  and  _167
REMARK   71  A    between atoms: _166  and  _169
REMARK   72  A    between atoms: _169  and  _170
REMARK   73  A    between atoms: _172  and  _174
REMARK   74  A    between atoms: _174  and  _175
REMARK   75  A    between atoms: _174  and  _177
REMARK   76  A    between atoms: _177  and  _178
REMARK   77  A    between atoms: _178  and  _179
REMARK   78  A    between atoms: _184  and  _186
REMARK   79  A    between atoms: _186  and  _187
REMARK   80  A    between atoms: _186  and  _189
REMARK   81  A    between atoms: _191  and  _193
REMARK   82  A    between atoms: _193  and  _194
REMARK   83  A    between atoms: _193  and  _196
REMARK   84  A    between atoms: _198  and  _200
REMARK   85  A    between atoms: _200  and  _201
REMARK   86  A    between atoms: _200  and  _203
REMARK   87  A    between atoms: _203  and  _204
REMARK   88  A    between atoms: _207  and  _209
REMARK   89  A    between atoms: _209  and  _210
REMARK   90  A    between atoms: _209  and  _212
REMARK   91  A    between atoms: _212  and  _213
REMARK   92  A    between atoms: _216  and  _218
REMARK   93  A    between atoms: _218  and  _219
REMARK   94  A    between atoms: _218  and  _221
REMARK   95  A    between atoms: _221  and  _222
REMARK   96  A    between atoms: _222  and  _223
REMARK   97  A    between atoms: _223  and  _224
REMARK   98  A    between atoms: _224  and  _225
REMARK   99  A    between atoms: _229  and  _231
REMARK  100  A    between atoms: _231  and  _232
REMARK  101  A    between atoms: _231  and  _234
REMARK  102  A    between atoms: _234  and  _235
REMARK  103  A    between atoms: _240  and  _242
REMARK  104  A    between atoms: _242  and  _243
REMARK  105  A    between atoms: _242  and  _245
REMARK  106  A    between atoms: _245  and  _246
REMARK  107  A    between atoms: _251  and  _252
REMARK  108  A    between atoms: _254  and  _256
REMARK  109  A    between atoms: _256  and  _257
REMARK  110  A    between atoms: _256  and  _259
REMARK  111  A    between atoms: _262  and  _264
REMARK  112  A    between atoms: _264  and  _265
REMARK  113  A    between atoms: _264  and  _267
REMARK  114  A    between atoms: _267  and  _268
REMARK  115  A    between atoms: _268  and  _269
REMARK  116  A    between atoms: _269  and  _270
REMARK  117  A    between atoms: _270  and  _271
REMARK  118  A    between atoms: _275  and  _277
REMARK  119  A    between atoms: _277  and  _278
REMARK  120  A    between atoms: _277  and  _280
REMARK  121  A    between atoms: _280  and  _281
REMARK  122  A    between atoms: _284  and  _286
REMARK  123  A    between atoms: _286  and  _287
REMARK  124  A    between atoms: _286  and  _289
REMARK  125  A    between atoms: _289  and  _290
REMARK  126  A    between atoms: _290  and  _291
REMARK  127  A    between atoms: _291  and  _292
REMARK  128  A    between atoms: _292  and  _293
REMARK                            x       y       z     vdW  Elec       q    Type
REMARK                         _______ _______ _______ _____ _____    ______ ____
ROOT
ATOM      1  CA  GLU A   1      15.824  34.651  31.045  0.00  0.00    +0.134 C 
ENDROOT
BRANCH   1   2
ATOM      2  N   GLU A   1      15.671  33.591  32.037  0.00  0.00    -0.239 NA
ATOM      3  H   GLU A   1      16.258  32.735  31.979  0.00  0.00    +0.142 HD
ENDBRANCH   1   2
BRANCH   1   4
ATOM      4  C   GLU A   1      14.677  34.630  30.038  0.00  0.00    +0.224 C 
ATOM      5  O   GLU A   1      14.119  35.679  29.723  0.00  0.00    -0.287 OA
ENDBRANCH   1   4
BRANCH   1   6
ATOM      6  CB  GLU A   1      17.181  34.554  30.338  0.00  0.00    +0.037 C 
BRANCH   6   7
ATOM      7  CG  GLU A   1      18.340  34.993  31.219  0.00  0.00    +0.116 C 
BRANCH   7   8
ATOM      8  CD  GLU A   1      19.693  34.532  30.709  0.00  0.00    +0.365 C 
ATOM      9  OE2 GLU A   1      20.680  34.644  31.476  0.00  0.00    -0.246 OA
ATOM     10  OE1 GLU A   1      19.765  34.054  29.554  0.00  0.00    -0.246 OA
ENDBRANCH   7   8
ENDBRANCH   6   7
ENDBRANCH   1   6
TORSDOF 5
REMARK  Name = ../refined-set-2016/4g0y/4g0y_pocket.pdb
REMARK  128 active torsions:
REMARK  status: ('A' for Active; 'I' for Inactive)
REMARK    1  A    between atoms: _1  and  _3
REMARK    2  A    between atoms: _3  and  _4
REMARK    3  A    between atoms: _3  and  _6
REMARK    4  A    between atoms: _6  and  _7
REMARK    5  A    between atoms: _10  and  _12
REMARK    6  A    between atoms: _12  and  _13
REMARK    7  A    between atoms: _12  and  _15
REMARK    8  A    between atoms: _15  and  _16
REMARK    9  A    between atoms: _19  and  _21
REMARK   10  A    between atoms: _21  and  _22
REMARK   11  A    between atoms: _21  and  _24
REMARK   12  A    between atoms: _27  and  _29
REMARK   13  A    between atoms: _29  and  _30
REMARK   14  A    between atoms: _29  and  _32
REMARK   15  A    between atoms: _32  and  _33
REMARK   16  A    between atoms: _37  and  _38
REMARK   17  A    between atoms: _43  and  _45
REMARK   18  A    between atoms: _45  and  _46
REMARK   19  A    between atoms: _45  and  _48
REMARK   20  A    between atoms: _48  and  _49
REMARK   21  A    between atoms: _52  and  _54
REMARK   22  A    between atoms: _54  and  _55
REMARK   23  A    between atoms: _54  and  _57
REMARK   24  A    between atoms: _57  and  _58
REMARK   25  A    between atoms: _63  and  _65
REMARK   26  A    between atoms: _65  and  _66
REMARK   27  A    between atoms: _65  and  _68
REMARK   28  A    between atoms: _68  and  _69
REMARK   29  A    between atoms: _74  and  _76
REMARK   30  A    between atoms: _76  and  _77
REMARK   31  A    between atoms: _79  and  _81
REMARK   32  A    between atoms: _81  and  _82
REMARK   33  A    between atoms: _81  and  _84
REMARK   34  A    between atoms: _84  and  _85
REMARK   35  A    between atoms: _87  and  _89
REMARK   36  A    between atoms: _89  and  _90
REMARK   37  A    between atoms: _89  and  _92
REMARK   38  A    between atoms: _92  and  _93
REMARK   39  A    between atoms: _96  and  _98
REMARK   40  A    between atoms: _98  and  _99
REMARK   41  A    between atoms: _98  and  _101
REMARK   42  A    between atoms: _101  and  _102
REMARK   43  A    between atoms: _107  and  _108
REMARK   44  A    between atoms: _110  and  _112
REMARK   45  A    between atoms: _112  and  _113
REMARK   46  A    between atoms: _115  and  _117
REMARK   47  A    between atoms: _117  and  _118
REMARK   48  A    between atoms: _117  and  _120
REMARK   49  A    between atoms: _120  and  _121
REMARK   50  A    between atoms: _124  and  _126
REMARK   51  A    between atoms: _126  and  _127
REMARK   52  A    between atoms: _126  and  _129
REMARK   53  A    between atoms: _129  and  _130
REMARK   54  A    between atoms: _133  and  _135
REMARK   55  A    between atoms: _135  and  _136
REMARK   56  A    between atoms: _135  and  _138
REMARK   57  A    between atoms: _138  and  _139
REMARK   58  A    between atoms: _139  and  _140
REMARK   59  A    between atoms: _140  and  _141
REMARK   60  A    between atoms: _141  and  _142
REMARK   61  A    between atoms: _146  and  _148
REMARK   62  A    between atoms: _148  and  _149
REMARK   63  A    between atoms: _148  and  _151
REMARK   64  A    between atoms: _151  and  _152
REMARK   65  A    between atoms: _152  and  _153
REMARK   66  A    between atoms: _156  and  _158
REMARK   67  A    between atoms: _158  and  _159
REMARK   68  A    between atoms: _158  and  _161
REMARK   69  A    between atoms: _164  and  _166
REMARK   70  A    between atoms: _166  and  _167
REMARK   71  A    between atoms: _166  and  _169
REMARK   72  A    between atoms: _169  and  _170
REMARK   73  A    between atoms: _172  and  _174
REMARK   74  A    between atoms: _174  and  _175
REMARK   75  A    between atoms: _174  and  _177
REMARK   76  A    between atoms: _177  and  _178
REMARK   77  A    between atoms: _178  and  _179
REMARK   78  A    between atoms: _184  and  _186
REMARK   79  A    between atoms: _186  and  _187
REMARK   80  A    between atoms: _186  and  _189
REMARK   81  A    between atoms: _191  and  _193
REMARK   82  A    between atoms: _193  and  _194
REMARK   83  A    between atoms: _193  and  _196
REMARK   84  A    between atoms: _198  and  _200
REMARK   85  A    between atoms: _200  and  _201
REMARK   86  A    between atoms: _200  and  _203
REMARK   87  A    between atoms: _203  and  _204
REMARK   88  A    between atoms: _207  and  _209
REMARK   89  A    between atoms: _209  and  _210
REMARK   90  A    between atoms: _209  and  _212
REMARK   91  A    between atoms: _212  and  _213
REMARK   92  A    between atoms: _216  and  _218
REMARK   93  A    between atoms: _218  and  _219
REMARK   94  A    between atoms: _218  and  _221
REMARK   95  A    between atoms: _221  and  _222
REMARK   96  A    between atoms: _222  and  _223
REMARK   97  A    between atoms: _223  and  _224
REMARK   98  A    between atoms: _224  and  _225
REMARK   99  A    between atoms: _229  and  _231
REMARK  100  A    between atoms: _231  and  _232
REMARK  101  A    between atoms: _231  and  _234
REMARK  102  A    between atoms: _234  and  _235
REMARK  103  A    between atoms: _240  and  _242
REMARK  104  A    between atoms: _242  and  _243
REMARK  105  A    between atoms: _242  and  _245
REMARK  106  A    between atoms: _245  and  _246
REMARK  107  A    between atoms: _251  and  _252
REMARK  108  A    between atoms: _254  and  _256
REMARK  109  A    between atoms: _256  and  _257
REMARK  110  A    between atoms: _256  and  _259
REMARK  111  A    between atoms: _262  and  _264
REMARK  112  A    between atoms: _264  and  _265
REMARK  113  A    between atoms: _264  and  _267
REMARK  114  A    between atoms: _267  and  _268
REMARK  115  A    between atoms: _268  and  _269
REMARK  116  A    between atoms: _269  and  _270
REMARK  117  A    between atoms: _270  and  _271
REMARK  118  A    between atoms: _275  and  _277
REMARK  119  A    between atoms: _277  and  _278
REMARK  120  A    between atoms: _277  and  _280
REMARK  121  A    between atoms: _280  and  _281
REMARK  122  A    between atoms: _284  and  _286
REMARK  123  A    between atoms: _286  and  _287
REMARK  124  A    between atoms: _286  and  _289
REMARK  125  A    between atoms: _289  and  _290
REMARK  126  A    between atoms: _290  and  _291
REMARK  127  A    between atoms: _291  and  _292
REMARK  128  A    between atoms: _292  and  _293
REMARK                            x       y       z     vdW  Elec       q    Type
REMARK                         _______ _______ _______ _____ _____    ______ ____
ROOT
ATOM      1  C   CYS A   5      26.100  29.878  44.931  0.00  0.00    +0.242 C 
ATOM      2  O   CYS A   5      25.254  29.046  45.249  0.00  0.00    -0.273 OA
ATOM      3  N   LEU A   6      27.404  29.606  44.830  0.00  0.00    -0.297 N 
ATOM      4  H   LEU A   6      28.064  30.376  44.597  0.00  0.00    +0.150 HD
ENDROOT
BRANCH   3   5
ATOM      5  CA  LEU A   6      27.930  28.261  45.037  0.00  0.00    +0.149 C 
BRANCH   5   6
ATOM      6  C   LEU A   6      27.969  27.877  46.519  0.00  0.00    +0.241 C 
ATOM      7  O   LEU A   6      28.233  28.707  47.382  0.00  0.00    -0.273 OA
ATOM      8  N   THR A   7      27.707  26.601  46.791  0.00  0.00    -0.295 N 
ATOM      9  H   THR A   7      27.508  25.956  45.999  0.00  0.00    +0.150 HD
BRANCH   8  10
ATOM     10  CA  THR A   7      27.685  26.062  48.151  0.00  0.00    +0.176 C 
BRANCH  10  11
ATOM     11  C   THR A   7      28.916  26.457  48.964  0.00  0.00    +0.243 C 
ATOM     12  O   THR A   7      28.808  26.757  50.147  0.00  0.00    -0.273 OA
ATOM     13  N   LYS A   8      30.082  26.468  48.327  0.00  0.00    -0.297 N 
ATOM     14  H   LYS A   8      30.114  26.260  47.308  0.00  0.00    +0.150 HD
BRANCH  13  15
ATOM     15  CA  LYS A   8      31.318  26.769  49.043  0.00  0.00    +0.149 C 
BRANCH  15  16
ATOM     16  C   LYS A   8      31.251  28.145  49.701  0.00  0.00    +0.241 C 
ATOM     17  O   LYS A   8      31.759  28.343  50.809  0.00  0.00    -0.273 OA
ATOM     18  N   HIS A   9      30.591  29.093  49.035  0.00  0.00    -0.298 N 
ATOM     19  H   HIS A   9      30.143  28.858  48.126  0.00  0.00    +0.150 HD
BRANCH  18  20
ATOM     20  CA  HIS A   9      30.484  30.450  49.553  0.00  0.00    +0.143 C 
BRANCH  20  21
ATOM     21  C   HIS A   9      29.399  30.578  50.611  0.00  0.00    +0.227 C 
ATOM     22  O   HIS A   9      29.451  31.453  51.470  0.00  0.00    -0.286 OA
ENDBRANCH  20  21
BRANCH  20  23
ATOM     23  CB  HIS A   9      30.227  31.445  48.411  0.00  0.00    +0.075 C 
BRANCH  23  24
ATOM     24  CG  HIS A   9      31.300  31.445  47.368  0.00  0.00    +0.082 A 
ATOM     25  CD2 HIS A   9      32.625  31.708  47.454  0.00  0.00    +0.115 A 
ATOM     26  NE2 HIS A   9      33.157  31.540  46.199  0.00  0.00    -0.221 NA
ATOM     27  CE1 HIS A   9      32.192  31.187  45.369  0.00  0.00    +0.199 A 
ATOM     28  ND1 HIS A   9      31.062  31.117  46.050  0.00  0.00    -0.227 NA
ENDBRANCH  23  24
ENDBRANCH  20  23
ENDBRANCH  18  20
ENDBRANCH  15  16
BRANCH  15  29
ATOM     29  CB  LYS A   8      32.537  26.665  48.113  0.00  0.00    +0.029 C 
BRANCH  29  30
ATOM     30  CG  LYS A   8      32.526  27.655  46.953  0.00  0.00    +0.000 C 
BRANCH  30  31
ATOM     31  CD  LYS A   8      33.780  27.554  46.101  0.00  0.00    -0.024 C 
BRANCH  31  32
ATOM     32  CE  LYS A   8      33.808  26.267  45.294  0.00  0.00    -0.086 C 
BRANCH  32  33
ATOM     33  NZ  LYS A   8      34.983  26.231  44.368  0.00  0.00    +0.380 N 
ATOM     34  HZ1 LYS A   8      35.861  26.294  44.922  0.00  0.00    -0.089 HD
ATOM     35  HZ2 LYS A   8      34.973  25.340  43.832  0.00  0.00    -0.089 HD
ATOM     36  HZ3 LYS A   8      34.928  27.034  43.709  0.00  0.00    -0.089 HD
ENDBRANCH  32  33
ENDBRANCH  31  32
ENDBRANCH  30  31
ENDBRANCH  29  30
ENDBRANCH  15  29
ENDBRANCH  13  15
ENDBRANCH  10  11
BRANCH  10  37
ATOM     37  CB  THR A   7      27.560  24.511  48.125  0.00  0.00    +0.137 C 
ATOM     38  CG2 THR A   7      27.621  23.934  49.529  0.00  0.00    +0.034 C 
BRANCH  37  39
ATOM     39  OG1 THR A   7      26.306  24.139  47.534  0.00  0.00    -0.382 OA
ATOM     40  HG1 THR A   7      26.262  24.489  46.609  0.00  0.00    +0.210 HD
ENDBRANCH  37  39
ENDBRANCH  10  37
ENDBRANCH   8  10
ENDBRANCH   5   6
BRANCH   5  41
ATOM     41  CB  LEU A   6      29.330  28.119  44.414  0.00  0.00    +0.029 C 
BRANCH  41  42
ATOM     42  CG  LEU A   6      29.368  28.213  42.887  0.00  0.00    +0.002 C 
ATOM     43  CD2 LEU A   6      30.807  28.103  42.394  0.00  0.00    +0.000 C 
ATOM     44  CD1 LEU A   6      28.490  27.144  42.253  0.00  0.00    +0.000 C 
ENDBRANCH  41  42
ENDBRANCH   5  41
ENDBRANCH   3   5
BRANCH   1  45
ATOM     45  CA  CYS A   5      25.682  31.305  44.654  0.00  0.00    +0.160 C 
BRANCH  45  47
ATOM     46  C   CYS A   4      24.698  32.152  42.592  0.00  0.00    +0.242 C 
ATOM     47  N   CYS A   5      24.657  31.303  43.615  0.00  0.00    -0.296 N 
ATOM     48  H   CYS A   5      23.875  30.620  43.676  0.00  0.00    +0.150 HD
ATOM     49  O   CYS A   4      25.590  32.990  42.440  0.00  0.00    -0.273 OA
BRANCH  46  50
ATOM     50  CA  CYS A   4      23.554  32.040  41.600  0.00  0.00    +0.160 C 
BRANCH  50  53
ATOM     51  C   GLN A   3      22.130  34.009  41.762  0.00  0.00    +0.241 C 
ATOM     52  O   GLN A   3      21.523  33.562  42.734  0.00  0.00    -0.273 OA
ATOM     53  N   CYS A   4      23.114  33.360  41.147  0.00  0.00    -0.296 N 
ATOM     54  H   CYS A   4      23.580  33.799  40.328  0.00  0.00    +0.150 HD
BRANCH  51  55
ATOM     55  CA  GLN A   3      21.759  35.358  41.192  0.00  0.00    +0.149 C 
BRANCH  55  57
ATOM     56  C   SER A   2      20.035  35.714  39.506  0.00  0.00    +0.243 C 
ATOM     57  N   GLN A   3      20.378  35.283  40.715  0.00  0.00    -0.297 N 
ATOM     58  H   GLN A   3      19.647  34.883  41.337  0.00  0.00    +0.150 HD
ATOM     59  O   SER A   2      20.844  36.222  38.723  0.00  0.00    -0.273 OA
BRANCH  56  60
ATOM     60  CA  SER A   2      18.574  35.529  39.122  0.00  0.00    +0.178 C 
BRANCH  60  63
ATOM     61  C   VAL A   1      16.946  37.213  38.457  0.00  0.00    +0.238 C 
ATOM     62  O   VAL A   1      16.206  36.907  39.395  0.00  0.00    -0.274 OA
ATOM     63  N   SER A   2      18.114  36.607  38.239  0.00  0.00    -0.295 N 
ATOM     64  H   SER A   2      18.705  36.901  37.435  0.00  0.00    +0.150 HD
BRANCH  61  65
ATOM     65  CA  VAL A   1      16.537  38.306  37.468  0.00  0.00    +0.145 C 
BRANCH  65  66
ATOM     66  CB  VAL A   1      16.774  39.709  38.071  0.00  0.00    +0.025 C 
ATOM     67  CG2 VAL A   1      18.142  39.800  38.786  0.00  0.00    +0.002 C 
ATOM     68  CG1 VAL A   1      16.641  40.778  36.983  0.00  0.00    +0.002 C 
ENDBRANCH  65  66
BRANCH  65  69
ATOM     69  N   VAL A   1      15.133  38.151  37.111  0.00  0.00    -0.238 NA
ATOM     70  H   VAL A   1      14.454  38.883  37.401  0.00  0.00    +0.142 HD
ENDBRANCH  65  69
ENDBRANCH  61  65
ENDBRANCH  60  63
BRANCH  60  71
ATOM     71  CB  SER A   2      18.363  34.151  38.470  0.00  0.00    +0.166 C 
BRANCH  71  72
ATOM     72  OG  SER A   2      19.152  34.013  37.291  0.00  0.00    -0.380 OA
ATOM     73  H   SER A   2      18.896  34.714  36.640  0.00  0.00    +0.211 HD
ENDBRANCH  71  72
ENDBRANCH  60  71
ENDBRANCH  56  60
ENDBRANCH  55  57
BRANCH  55  74
ATOM     74  CB  GLN A   3      21.906  36.439  42.268  0.00  0.00    +0.039 C 
BRANCH  74  75
ATOM     75  CG  GLN A   3      23.327  36.538  42.845  0.00  0.00    +0.087 C 
BRANCH  75  76
ATOM     76  CD  GLN A   3      24.347  36.844  41.774  0.00  0.00    +0.219 C 
ATOM     77  NE2 GLN A   3      25.341  35.979  41.633  0.00  0.00    -0.329 N 
ATOM     78 HE21 GLN A   3      25.391  35.140  42.246  0.00  0.00    +0.145 HD
ATOM     79 HE22 GLN A   3      26.071  36.139  40.910  0.00  0.00    +0.145 HD
ATOM     80  OE1 GLN A   3      24.239  37.853  41.076  0.00  0.00    -0.275 OA
ENDBRANCH  75  76
ENDBRANCH  74  75
ENDBRANCH  55  74
ENDBRANCH  51  55
ENDBRANCH  50  53
BRANCH  50  81
ATOM     81  CB  CYS A   4      23.968  31.170  40.421  0.00  0.00    +0.098 C 
ATOM     82  SG  CYS A   4      22.592  30.783  39.345  0.00  0.00    -0.080 S 
ENDBRANCH  50  81
ENDBRANCH  46  50
ENDBRANCH  45  47
BRANCH  45  83
ATOM     83  CB  CYS A   5      25.116  31.909  45.935  0.00  0.00    +0.098 C 
ATOM     84  SG  CYS A   5      24.500  33.611  45.724  0.00  0.00    -0.080 S 
ENDBRANCH  45  83
ENDBRANCH   1  45
TORSDOF 37
REMARK  Name = ../refined-set-2016/4g0y/4g0y_pocket.pdb
REMARK  128 active torsions:
REMARK  status: ('A' for Active; 'I' for Inactive)
REMARK    1  A    between atoms: _1  and  _3
REMARK    2  A    between atoms: _3  and  _4
REMARK    3  A    between atoms: _3  and  _6
REMARK    4  A    between atoms: _6  and  _7
REMARK    5  A    between atoms: _10  and  _12
REMARK    6  A    between atoms: _12  and  _13
REMARK    7  A    between atoms: _12  and  _15
REMARK    8  A    between atoms: _15  and  _16
REMARK    9  A    between atoms: _19  and  _21
REMARK   10  A    between atoms: _21  and  _22
REMARK   11  A    between atoms: _21  and  _24
REMARK   12  A    between atoms: _27  and  _29
REMARK   13  A    between atoms: _29  and  _30
REMARK   14  A    between atoms: _29  and  _32
REMARK   15  A    between atoms: _32  and  _33
REMARK   16  A    between atoms: _37  and  _38
REMARK   17  A    between atoms: _43  and  _45
REMARK   18  A    between atoms: _45  and  _46
REMARK   19  A    between atoms: _45  and  _48
REMARK   20  A    between atoms: _48  and  _49
REMARK   21  A    between atoms: _52  and  _54
REMARK   22  A    between atoms: _54  and  _55
REMARK   23  A    between atoms: _54  and  _57
REMARK   24  A    between atoms: _57  and  _58
REMARK   25  A    between atoms: _63  and  _65
REMARK   26  A    between atoms: _65  and  _66
REMARK   27  A    between atoms: _65  and  _68
REMARK   28  A    between atoms: _68  and  _69
REMARK   29  A    between atoms: _74  and  _76
REMARK   30  A    between atoms: _76  and  _77
REMARK   31  A    between atoms: _79  and  _81
REMARK   32  A    between atoms: _81  and  _82
REMARK   33  A    between atoms: _81  and  _84
REMARK   34  A    between atoms: _84  and  _85
REMARK   35  A    between atoms: _87  and  _89
REMARK   36  A    between atoms: _89  and  _90
REMARK   37  A    between atoms: _89  and  _92
REMARK   38  A    between atoms: _92  and  _93
REMARK   39  A    between atoms: _96  and  _98
REMARK   40  A    between atoms: _98  and  _99
REMARK   41  A    between atoms: _98  and  _101
REMARK   42  A    between atoms: _101  and  _102
REMARK   43  A    between atoms: _107  and  _108
REMARK   44  A    between atoms: _110  and  _112
REMARK   45  A    between atoms: _112  and  _113
REMARK   46  A    between atoms: _115  and  _117
REMARK   47  A    between atoms: _117  and  _118
REMARK   48  A    between atoms: _117  and  _120
REMARK   49  A    between atoms: _120  and  _121
REMARK   50  A    between atoms: _124  and  _126
REMARK   51  A    between atoms: _126  and  _127
REMARK   52  A    between atoms: _126  and  _129
REMARK   53  A    between atoms: _129  and  _130
REMARK   54  A    between atoms: _133  and  _135
REMARK   55  A    between atoms: _135  and  _136
REMARK   56  A    between atoms: _135  and  _138
REMARK   57  A    between atoms: _138  and  _139
REMARK   58  A    between atoms: _139  and  _140
REMARK   59  A    between atoms: _140  and  _141
REMARK   60  A    between atoms: _141  and  _142
REMARK   61  A    between atoms: _146  and  _148
REMARK   62  A    between atoms: _148  and  _149
REMARK   63  A    between atoms: _148  and  _151
REMARK   64  A    between atoms: _151  and  _152
REMARK   65  A    between atoms: _152  and  _153
REMARK   66  A    between atoms: _156  and  _158
REMARK   67  A    between atoms: _158  and  _159
REMARK   68  A    between atoms: _158  and  _161
REMARK   69  A    between atoms: _164  and  _166
REMARK   70  A    between atoms: _166  and  _167
REMARK   71  A    between atoms: _166  and  _169
REMARK   72  A    between atoms: _169  and  _170
REMARK   73  A    between atoms: _172  and  _174
REMARK   74  A    between atoms: _174  and  _175
REMARK   75  A    between atoms: _174  and  _177
REMARK   76  A    between atoms: _177  and  _178
REMARK   77  A    between atoms: _178  and  _179
REMARK   78  A    between atoms: _184  and  _186
REMARK   79  A    between atoms: _186  and  _187
REMARK   80  A    between atoms: _186  and  _189
REMARK   81  A    between atoms: _191  and  _193
REMARK   82  A    between atoms: _193  and  _194
REMARK   83  A    between atoms: _193  and  _196
REMARK   84  A    between atoms: _198  and  _200
REMARK   85  A    between atoms: _200  and  _201
REMARK   86  A    between atoms: _200  and  _203
REMARK   87  A    between atoms: _203  and  _204
REMARK   88  A    between atoms: _207  and  _209
REMARK   89  A    between atoms: _209  and  _210
REMARK   90  A    between atoms: _209  and  _212
REMARK   91  A    between atoms: _212  and  _213
REMARK   92  A    between atoms: _216  and  _218
REMARK   93  A    between atoms: _218  and  _219
REMARK   94  A    between atoms: _218  and  _221
REMARK   95  A    between atoms: _221  and  _222
REMARK   96  A    between atoms: _222  and  _223
REMARK   97  A    between atoms: _223  and  _224
REMARK   98  A    between atoms: _224  and  _225
REMARK   99  A    between atoms: _229  and  _231
REMARK  100  A    between atoms: _231  and  _232
REMARK  101  A    between atoms: _231  and  _234
REMARK  102  A    between atoms: _234  and  _235
REMARK  103  A    between atoms: _240  and  _242
REMARK  104  A    between atoms: _242  and  _243
REMARK  105  A    between atoms: _242  and  _245
REMARK  106  A    between atoms: _245  and  _246
REMARK  107  A    between atoms: _251  and  _252
REMARK  108  A    between atoms: _254  and  _256
REMARK  109  A    between atoms: _256  and  _257
REMARK  110  A    between atoms: _256  and  _259
REMARK  111  A    between atoms: _262  and  _264
REMARK  112  A    between atoms: _264  and  _265
REMARK  113  A    between atoms: _264  and  _267
REMARK  114  A    between atoms: _267  and  _268
REMARK  115  A    between atoms: _268  and  _269
REMARK  116  A    between atoms: _269  and  _270
REMARK  117  A    between atoms: _270  and  _271
REMARK  118  A    between atoms: _275  and  _277
REMARK  119  A    between atoms: _277  and  _278
REMARK  120  A    between atoms: _277  and  _280
REMARK  121  A    between atoms: _280  and  _281
REMARK  122  A    between atoms: _284  and  _286
REMARK  123  A    between atoms: _286  and  _287
REMARK  124  A    between atoms: _286  and  _289
REMARK  125  A    between atoms: _289  and  _290
REMARK  126  A    between atoms: _290  and  _291
REMARK  127  A    between atoms: _291  and  _292
REMARK  128  A    between atoms: _292  and  _293
REMARK                            x       y       z     vdW  Elec       q    Type
REMARK                         _______ _______ _______ _____ _____    ______ ____
ROOT
ATOM      1  CG  TYR A   1      30.807  35.501  48.481  0.00  0.00    -0.020 A 
ATOM      2  CD2 TYR A   1      29.518  35.246  48.931  0.00  0.00    -0.001 A 
ATOM      3  CE2 TYR A   1      28.597  34.584  48.132  0.00  0.00    +0.036 A 
ATOM      4  CZ  TYR A   1      28.966  34.171  46.869  0.00  0.00    +0.134 A 
ATOM      5  CE1 TYR A   1      30.236  34.413  46.394  0.00  0.00    +0.036 A 
ATOM      6  CD1 TYR A   1      31.152  35.074  47.204  0.00  0.00    -0.001 A 
ENDROOT
BRANCH   4   7
ATOM      7  OH  TYR A   1      28.049  33.516  46.076  0.00  0.00    -0.506 OA
ATOM      8  HH  TYR A   1      28.468  33.289  45.208  0.00  0.00    +0.292 HD
ENDBRANCH   4   7
BRANCH   1   9
ATOM      9  CB  TYR A   1      31.814  36.226  49.358  0.00  0.00    +0.051 C 
BRANCH   9  10
ATOM     10  CA  TYR A   1      31.994  37.692  48.976  0.00  0.00    +0.137 C 
BRANCH  10  11
ATOM     11  N   TYR A   1      32.858  38.378  49.927  0.00  0.00    -0.239 NA
ATOM     12  H   TYR A   1      33.228  37.864  50.752  0.00  0.00    +0.142 HD
ENDBRANCH  10  11
BRANCH  10  13
ATOM     13  C   TYR A   1      30.634  38.370  48.898  0.00  0.00    +0.224 C 
ATOM     14  O   TYR A   1      30.125  38.641  47.809  0.00  0.00    -0.287 OA
ENDBRANCH  10  13
ENDBRANCH   9  10
ENDBRANCH   1   9
TORSDOF 5
REMARK  Name = ../refined-set-2016/4g0y/4g0y_pocket.pdb
REMARK  128 active torsions:
REMARK  status: ('A' for Active; 'I' for Inactive)
REMARK    1  A    between atoms: _1  and  _3
REMARK    2  A    between atoms: _3  and  _4
REMARK    3  A    between atoms: _3  and  _6
REMARK    4  A    between atoms: _6  and  _7
REMARK    5  A    between atoms: _10  and  _12
REMARK    6  A    between atoms: _12  and  _13
REMARK    7  A    between atoms: _12  and  _15
REMARK    8  A    between atoms: _15  and  _16
REMARK    9  A    between atoms: _19  and  _21
REMARK   10  A    between atoms: _21  and  _22
REMARK   11  A    between atoms: _21  and  _24
REMARK   12  A    between atoms: _27  and  _29
REMARK   13  A    between atoms: _29  and  _30
REMARK   14  A    between atoms: _29  and  _32
REMARK   15  A    between atoms: _32  and  _33
REMARK   16  A    between atoms: _37  and  _38
REMARK   17  A    between atoms: _43  and  _45
REMARK   18  A    between atoms: _45  and  _46
REMARK   19  A    between atoms: _45  and  _48
REMARK   20  A    between atoms: _48  and  _49
REMARK   21  A    between atoms: _52  and  _54
REMARK   22  A    between atoms: _54  and  _55
REMARK   23  A    between atoms: _54  and  _57
REMARK   24  A    between atoms: _57  and  _58
REMARK   25  A    between atoms: _63  and  _65
REMARK   26  A    between atoms: _65  and  _66
REMARK   27  A    between atoms: _65  and  _68
REMARK   28  A    between atoms: _68  and  _69
REMARK   29  A    between atoms: _74  and  _76
REMARK   30  A    between atoms: _76  and  _77
REMARK   31  A    between atoms: _79  and  _81
REMARK   32  A    between atoms: _81  and  _82
REMARK   33  A    between atoms: _81  and  _84
REMARK   34  A    between atoms: _84  and  _85
REMARK   35  A    between atoms: _87  and  _89
REMARK   36  A    between atoms: _89  and  _90
REMARK   37  A    between atoms: _89  and  _92
REMARK   38  A    between atoms: _92  and  _93
REMARK   39  A    between atoms: _96  and  _98
REMARK   40  A    between atoms: _98  and  _99
REMARK   41  A    between atoms: _98  and  _101
REMARK   42  A    between atoms: _101  and  _102
REMARK   43  A    between atoms: _107  and  _108
REMARK   44  A    between atoms: _110  and  _112
REMARK   45  A    between atoms: _112  and  _113
REMARK   46  A    between atoms: _115  and  _117
REMARK   47  A    between atoms: _117  and  _118
REMARK   48  A    between atoms: _117  and  _120
REMARK   49  A    between atoms: _120  and  _121
REMARK   50  A    between atoms: _124  and  _126
REMARK   51  A    between atoms: _126  and  _127
REMARK   52  A    between atoms: _126  and  _129
REMARK   53  A    between atoms: _129  and  _130
REMARK   54  A    between atoms: _133  and  _135
REMARK   55  A    between atoms: _135  and  _136
REMARK   56  A    between atoms: _135  and  _138
REMARK   57  A    between atoms: _138  and  _139
REMARK   58  A    between atoms: _139  and  _140
REMARK   59  A    between atoms: _140  and  _141
REMARK   60  A    between atoms: _141  and  _142
REMARK   61  A    between atoms: _146  and  _148
REMARK   62  A    between atoms: _148  and  _149
REMARK   63  A    between atoms: _148  and  _151
REMARK   64  A    between atoms: _151  and  _152
REMARK   65  A    between atoms: _152  and  _153
REMARK   66  A    between atoms: _156  and  _158
REMARK   67  A    between atoms: _158  and  _159
REMARK   68  A    between atoms: _158  and  _161
REMARK   69  A    between atoms: _164  and  _166
REMARK   70  A    between atoms: _166  and  _167
REMARK   71  A    between atoms: _166  and  _169
REMARK   72  A    between atoms: _169  and  _170
REMARK   73  A    between atoms: _172  and  _174
REMARK   74  A    between atoms: _174  and  _175
REMARK   75  A    between atoms: _174  and  _177
REMARK   76  A    between atoms: _177  and  _178
REMARK   77  A    between atoms: _178  and  _179
REMARK   78  A    between atoms: _184  and  _186
REMARK   79  A    between atoms: _186  and  _187
REMARK   80  A    between atoms: _186  and  _189
REMARK   81  A    between atoms: _191  and  _193
REMARK   82  A    between atoms: _193  and  _194
REMARK   83  A    between atoms: _193  and  _196
REMARK   84  A    between atoms: _198  and  _200
REMARK   85  A    between atoms: _200  and  _201
REMARK   86  A    between atoms: _200  and  _203
REMARK   87  A    between atoms: _203  and  _204
REMARK   88  A    between atoms: _207  and  _209
REMARK   89  A    between atoms: _209  and  _210
REMARK   90  A    between atoms: _209  and  _212
REMARK   91  A    between atoms: _212  and  _213
REMARK   92  A    between atoms: _216  and  _218
REMARK   93  A    between atoms: _218  and  _219
REMARK   94  A    between atoms: _218  and  _221
REMARK   95  A    between atoms: _221  and  _222
REMARK   96  A    between atoms: _222  and  _223
REMARK   97  A    between atoms: _223  and  _224
REMARK   98  A    between atoms: _224  and  _225
REMARK   99  A    between atoms: _229  and  _231
REMARK  100  A    between atoms: _231  and  _232
REMARK  101  A    between atoms: _231  and  _234
REMARK  102  A    between atoms: _234  and  _235
REMARK  103  A    between atoms: _240  and  _242
REMARK  104  A    between atoms: _242  and  _243
REMARK  105  A    between atoms: _242  and  _245
REMARK  106  A    between atoms: _245  and  _246
REMARK  107  A    between atoms: _251  and  _252
REMARK  108  A    between atoms: _254  and  _256
REMARK  109  A    between atoms: _256  and  _257
REMARK  110  A    between atoms: _256  and  _259
REMARK  111  A    between atoms: _262  and  _264
REMARK  112  A    between atoms: _264  and  _265
REMARK  113  A    between atoms: _264  and  _267
REMARK  114  A    between atoms: _267  and  _268
REMARK  115  A    between atoms: _268  and  _269
REMARK  116  A    between atoms: _269  and  _270
REMARK  117  A    between atoms: _270  and  _271
REMARK  118  A    between atoms: _275  and  _277
REMARK  119  A    between atoms: _277  and  _278
REMARK  120  A    between atoms: _277  and  _280
REMARK  121  A    between atoms: _280  and  _281
REMARK  122  A    between atoms: _284  and  _286
REMARK  123  A    between atoms: _286  and  _287
REMARK  124  A    between atoms: _286  and  _289
REMARK  125  A    between atoms: _289  and  _290
REMARK  126  A    between atoms: _290  and  _291
REMARK  127  A    between atoms: _291  and  _292
REMARK  128  A    between atoms: _292  and  _293
REMARK                            x       y       z     vdW  Elec       q    Type
REMARK                         _______ _______ _______ _____ _____    ______ ____
ROOT
ATOM      1  CA  VAL A   1      27.442  39.516  45.115  0.00  0.00    +0.133 C 
ENDROOT
BRANCH   1   2
ATOM      2  CB  VAL A   1      26.912  38.302  45.884  0.00  0.00    +0.023 C 
ATOM      3  CG2 VAL A   1      27.885  37.138  45.740  0.00  0.00    +0.002 C 
ATOM      4  CG1 VAL A   1      25.524  37.894  45.349  0.00  0.00    +0.002 C 
ENDBRANCH   1   2
BRANCH   1   5
ATOM      5  N   VAL A   1      28.720  39.988  45.642  0.00  0.00    -0.239 NA
ATOM      6  H   VAL A   1      29.073  39.632  46.553  0.00  0.00    +0.142 HD
ENDBRANCH   1   5
BRANCH   1   7
ATOM      7  C   VAL A   1      26.411  40.646  45.121  0.00  0.00    +0.224 C 
ATOM      8  O   VAL A   1      25.598  40.770  44.199  0.00  0.00    -0.287 OA
ENDBRANCH   1   7
TORSDOF 3
REMARK  Name = ../refined-set-2016/4g0y/4g0y_pocket.pdb
REMARK  128 active torsions:
REMARK  status: ('A' for Active; 'I' for Inactive)
REMARK    1  A    between atoms: _1  and  _3
REMARK    2  A    between atoms: _3  and  _4
REMARK    3  A    between atoms: _3  and  _6
REMARK    4  A    between atoms: _6  and  _7
REMARK    5  A    between atoms: _10  and  _12
REMARK    6  A    between atoms: _12  and  _13
REMARK    7  A    between atoms: _12  and  _15
REMARK    8  A    between atoms: _15  and  _16
REMARK    9  A    between atoms: _19  and  _21
REMARK   10  A    between atoms: _21  and  _22
REMARK   11  A    between atoms: _21  and  _24
REMARK   12  A    between atoms: _27  and  _29
REMARK   13  A    between atoms: _29  and  _30
REMARK   14  A    between atoms: _29  and  _32
REMARK   15  A    between atoms: _32  and  _33
REMARK   16  A    between atoms: _37  and  _38
REMARK   17  A    between atoms: _43  and  _45
REMARK   18  A    between atoms: _45  and  _46
REMARK   19  A    between atoms: _45  and  _48
REMARK   20  A    between atoms: _48  and  _49
REMARK   21  A    between atoms: _52  and  _54
REMARK   22  A    between atoms: _54  and  _55
REMARK   23  A    between atoms: _54  and  _57
REMARK   24  A    between atoms: _57  and  _58
REMARK   25  A    between atoms: _63  and  _65
REMARK   26  A    between atoms: _65  and  _66
REMARK   27  A    between atoms: _65  and  _68
REMARK   28  A    between atoms: _68  and  _69
REMARK   29  A    between atoms: _74  and  _76
REMARK   30  A    between atoms: _76  and  _77
REMARK   31  A    between atoms: _79  and  _81
REMARK   32  A    between atoms: _81  and  _82
REMARK   33  A    between atoms: _81  and  _84
REMARK   34  A    between atoms: _84  and  _85
REMARK   35  A    between atoms: _87  and  _89
REMARK   36  A    between atoms: _89  and  _90
REMARK   37  A    between atoms: _89  and  _92
REMARK   38  A    between atoms: _92  and  _93
REMARK   39  A    between atoms: _96  and  _98
REMARK   40  A    between atoms: _98  and  _99
REMARK   41  A    between atoms: _98  and  _101
REMARK   42  A    between atoms: _101  and  _102
REMARK   43  A    between atoms: _107  and  _108
REMARK   44  A    between atoms: _110  and  _112
REMARK   45  A    between atoms: _112  and  _113
REMARK   46  A    between atoms: _115  and  _117
REMARK   47  A    between atoms: _117  and  _118
REMARK   48  A    between atoms: _117  and  _120
REMARK   49  A    between atoms: _120  and  _121
REMARK   50  A    between atoms: _124  and  _126
REMARK   51  A    between atoms: _126  and  _127
REMARK   52  A    between atoms: _126  and  _129
REMARK   53  A    between atoms: _129  and  _130
REMARK   54  A    between atoms: _133  and  _135
REMARK   55  A    between atoms: _135  and  _136
REMARK   56  A    between atoms: _135  and  _138
REMARK   57  A    between atoms: _138  and  _139
REMARK   58  A    between atoms: _139  and  _140
REMARK   59  A    between atoms: _140  and  _141
REMARK   60  A    between atoms: _141  and  _142
REMARK   61  A    between atoms: _146  and  _148
REMARK   62  A    between atoms: _148  and  _149
REMARK   63  A    between atoms: _148  and  _151
REMARK   64  A    between atoms: _151  and  _152
REMARK   65  A    between atoms: _152  and  _153
REMARK   66  A    between atoms: _156  and  _158
REMARK   67  A    between atoms: _158  and  _159
REMARK   68  A    between atoms: _158  and  _161
REMARK   69  A    between atoms: _164  and  _166
REMARK   70  A    between atoms: _166  and  _167
REMARK   71  A    between atoms: _166  and  _169
REMARK   72  A    between atoms: _169  and  _170
REMARK   73  A    between atoms: _172  and  _174
REMARK   74  A    between atoms: _174  and  _175
REMARK   75  A    between atoms: _174  and  _177
REMARK   76  A    between atoms: _177  and  _178
REMARK   77  A    between atoms: _178  and  _179
REMARK   78  A    between atoms: _184  and  _186
REMARK   79  A    between atoms: _186  and  _187
REMARK   80  A    between atoms: _186  and  _189
REMARK   81  A    between atoms: _191  and  _193
REMARK   82  A    between atoms: _193  and  _194
REMARK   83  A    between atoms: _193  and  _196
REMARK   84  A    between atoms: _198  and  _200
REMARK   85  A    between atoms: _200  and  _201
REMARK   86  A    between atoms: _200  and  _203
REMARK   87  A    between atoms: _203  and  _204
REMARK   88  A    between atoms: _207  and  _209
REMARK   89  A    between atoms: _209  and  _210
REMARK   90  A    between atoms: _209  and  _212
REMARK   91  A    between atoms: _212  and  _213
REMARK   92  A    between atoms: _216  and  _218
REMARK   93  A    between atoms: _218  and  _219
REMARK   94  A    between atoms: _218  and  _221
REMARK   95  A    between atoms: _221  and  _222
REMARK   96  A    between atoms: _222  and  _223
REMARK   97  A    between atoms: _223  and  _224
REMARK   98  A    between atoms: _224  and  _225
REMARK   99  A    between atoms: _229  and  _231
REMARK  100  A    between atoms: _231  and  _232
REMARK  101  A    between atoms: _231  and  _234
REMARK  102  A    between atoms: _234  and  _235
REMARK  103  A    between atoms: _240  and  _242
REMARK  104  A    between atoms: _242  and  _243
REMARK  105  A    between atoms: _242  and  _245
REMARK  106  A    between atoms: _245  and  _246
REMARK  107  A    between atoms: _251  and  _252
REMARK  108  A    between atoms: _254  and  _256
REMARK  109  A    between atoms: _256  and  _257
REMARK  110  A    between atoms: _256  and  _259
REMARK  111  A    between atoms: _262  and  _264
REMARK  112  A    between atoms: _264  and  _265
REMARK  113  A    between atoms: _264  and  _267
REMARK  114  A    between atoms: _267  and  _268
REMARK  115  A    between atoms: _268  and  _269
REMARK  116  A    between atoms: _269  and  _270
REMARK  117  A    between atoms: _270  and  _271
REMARK  118  A    between atoms: _275  and  _277
REMARK  119  A    between atoms: _277  and  _278
REMARK  120  A    between atoms: _277  and  _280
REMARK  121  A    between atoms: _280  and  _281
REMARK  122  A    between atoms: _284  and  _286
REMARK  123  A    between atoms: _286  and  _287
REMARK  124  A    between atoms: _286  and  _289
REMARK  125  A    between atoms: _289  and  _290
REMARK  126  A    between atoms: _290  and  _291
REMARK  127  A    between atoms: _291  and  _292
REMARK  128  A    between atoms: _292  and  _293
REMARK                            x       y       z     vdW  Elec       q    Type
REMARK                         _______ _______ _______ _____ _____    ______ ____
ROOT
ATOM      1  CA  LYS A   1      26.281  42.000  40.863  0.00  0.00    +0.145 C 
ENDROOT
BRANCH   1   2
ATOM      2  C   LYS A   1      24.760  42.125  40.831  0.00  0.00    +0.238 C 
ATOM      3  N   ILE A   2      24.123  41.883  41.970  0.00  0.00    -0.298 N 
ATOM      4  H   ILE A   2      24.664  41.574  42.803  0.00  0.00    +0.150 HD
ATOM      5  O   LYS A   1      24.175  42.406  39.780  0.00  0.00    -0.274 OA
BRANCH   3   6
ATOM      6  CA  ILE A   2      22.673  42.044  42.072  0.00  0.00    +0.137 C 
BRANCH   6   7
ATOM      7  CB  ILE A   2      22.153  41.652  43.478  0.00  0.00    +0.026 C 
ATOM      8  CG2 ILE A   2      20.701  42.094  43.659  0.00  0.00    +0.002 C 
BRANCH   7   9
ATOM      9  CG1 ILE A   2      22.263  40.129  43.662  0.00  0.00    +0.002 C 
ATOM     10  CD1 ILE A   2      22.079  39.667  45.115  0.00  0.00    +0.000 C 
ENDBRANCH   7   9
ENDBRANCH   6   7
BRANCH   6  11
ATOM     11  C   ILE A   2      22.253  43.464  41.718  0.00  0.00    +0.227 C 
ATOM     12  O   ILE A   2      21.295  43.671  40.971  0.00  0.00    -0.286 OA
ENDBRANCH   6  11
ENDBRANCH   3   6
ENDBRANCH   1   2
BRANCH   1  13
ATOM     13  N   LYS A   1      26.847  42.652  42.044  0.00  0.00    -0.238 NA
ATOM     14  H   LYS A   1      27.306  42.075  42.778  0.00  0.00    +0.142 HD
ENDBRANCH   1  13
BRANCH   1  15
ATOM     15  CB  LYS A   1      26.663  40.518  40.809  0.00  0.00    +0.026 C 
BRANCH  15  16
ATOM     16  CG  LYS A   1      28.134  40.241  40.601  0.00  0.00    -0.000 C 
BRANCH  16  17
ATOM     17  CD  LYS A   1      28.366  38.769  40.216  0.00  0.00    -0.024 C 
BRANCH  17  18
ATOM     18  CE  LYS A   1      27.792  38.476  38.830  0.00  0.00    -0.086 C 
BRANCH  18  19
ATOM     19  NZ  LYS A   1      28.225  37.148  38.281  0.00  0.00    +0.380 N 
ATOM     20  HZ1 LYS A   1      27.909  36.391  38.920  0.00  0.00    -0.089 HD
ATOM     21  HZ2 LYS A   1      29.262  37.128  38.204  0.00  0.00    -0.089 HD
ATOM     22  HZ3 LYS A   1      27.803  37.009  37.341  0.00  0.00    -0.089 HD
ENDBRANCH  18  19
ENDBRANCH  17  18
ENDBRANCH  16  17
ENDBRANCH  15  16
ENDBRANCH   1  15
TORSDOF 11
REMARK  Name = ../refined-set-2016/4g0y/4g0y_pocket.pdb
REMARK  128 active torsions:
REMARK  status: ('A' for Active; 'I' for Inactive)
REMARK    1  A    between atoms: _1  and  _3
REMARK    2  A    between atoms: _3  and  _4
REMARK    3  A    between atoms: _3  and  _6
REMARK    4  A    between atoms: _6  and  _7
REMARK    5  A    between atoms: _10  and  _12
REMARK    6  A    between atoms: _12  and  _13
REMARK    7  A    between atoms: _12  and  _15
REMARK    8  A    between atoms: _15  and  _16
REMARK    9  A    between atoms: _19  and  _21
REMARK   10  A    between atoms: _21  and  _22
REMARK   11  A    between atoms: _21  and  _24
REMARK   12  A    between atoms: _27  and  _29
REMARK   13  A    between atoms: _29  and  _30
REMARK   14  A    between atoms: _29  and  _32
REMARK   15  A    between atoms: _32  and  _33
REMARK   16  A    between atoms: _37  and  _38
REMARK   17  A    between atoms: _43  and  _45
REMARK   18  A    between atoms: _45  and  _46
REMARK   19  A    between atoms: _45  and  _48
REMARK   20  A    between atoms: _48  and  _49
REMARK   21  A    between atoms: _52  and  _54
REMARK   22  A    between atoms: _54  and  _55
REMARK   23  A    between atoms: _54  and  _57
REMARK   24  A    between atoms: _57  and  _58
REMARK   25  A    between atoms: _63  and  _65
REMARK   26  A    between atoms: _65  and  _66
REMARK   27  A    between atoms: _65  and  _68
REMARK   28  A    between atoms: _68  and  _69
REMARK   29  A    between atoms: _74  and  _76
REMARK   30  A    between atoms: _76  and  _77
REMARK   31  A    between atoms: _79  and  _81
REMARK   32  A    between atoms: _81  and  _82
REMARK   33  A    between atoms: _81  and  _84
REMARK   34  A    between atoms: _84  and  _85
REMARK   35  A    between atoms: _87  and  _89
REMARK   36  A    between atoms: _89  and  _90
REMARK   37  A    between atoms: _89  and  _92
REMARK   38  A    between atoms: _92  and  _93
REMARK   39  A    between atoms: _96  and  _98
REMARK   40  A    between atoms: _98  and  _99
REMARK   41  A    between atoms: _98  and  _101
REMARK   42  A    between atoms: _101  and  _102
REMARK   43  A    between atoms: _107  and  _108
REMARK   44  A    between atoms: _110  and  _112
REMARK   45  A    between atoms: _112  and  _113
REMARK   46  A    between atoms: _115  and  _117
REMARK   47  A    between atoms: _117  and  _118
REMARK   48  A    between atoms: _117  and  _120
REMARK   49  A    between atoms: _120  and  _121
REMARK   50  A    between atoms: _124  and  _126
REMARK   51  A    between atoms: _126  and  _127
REMARK   52  A    between atoms: _126  and  _129
REMARK   53  A    between atoms: _129  and  _130
REMARK   54  A    between atoms: _133  and  _135
REMARK   55  A    between atoms: _135  and  _136
REMARK   56  A    between atoms: _135  and  _138
REMARK   57  A    between atoms: _138  and  _139
REMARK   58  A    between atoms: _139  and  _140
REMARK   59  A    between atoms: _140  and  _141
REMARK   60  A    between atoms: _141  and  _142
REMARK   61  A    between atoms: _146  and  _148
REMARK   62  A    between atoms: _148  and  _149
REMARK   63  A    between atoms: _148  and  _151
REMARK   64  A    between atoms: _151  and  _152
REMARK   65  A    between atoms: _152  and  _153
REMARK   66  A    between atoms: _156  and  _158
REMARK   67  A    between atoms: _158  and  _159
REMARK   68  A    between atoms: _158  and  _161
REMARK   69  A    between atoms: _164  and  _166
REMARK   70  A    between atoms: _166  and  _167
REMARK   71  A    between atoms: _166  and  _169
REMARK   72  A    between atoms: _169  and  _170
REMARK   73  A    between atoms: _172  and  _174
REMARK   74  A    between atoms: _174  and  _175
REMARK   75  A    between atoms: _174  and  _177
REMARK   76  A    between atoms: _177  and  _178
REMARK   77  A    between atoms: _178  and  _179
REMARK   78  A    between atoms: _184  and  _186
REMARK   79  A    between atoms: _186  and  _187
REMARK   80  A    between atoms: _186  and  _189
REMARK   81  A    between atoms: _191  and  _193
REMARK   82  A    between atoms: _193  and  _194
REMARK   83  A    between atoms: _193  and  _196
REMARK   84  A    between atoms: _198  and  _200
REMARK   85  A    between atoms: _200  and  _201
REMARK   86  A    between atoms: _200  and  _203
REMARK   87  A    between atoms: _203  and  _204
REMARK   88  A    between atoms: _207  and  _209
REMARK   89  A    between atoms: _209  and  _210
REMARK   90  A    between atoms: _209  and  _212
REMARK   91  A    between atoms: _212  and  _213
REMARK   92  A    between atoms: _216  and  _218
REMARK   93  A    between atoms: _218  and  _219
REMARK   94  A    between atoms: _218  and  _221
REMARK   95  A    between atoms: _221  and  _222
REMARK   96  A    between atoms: _222  and  _223
REMARK   97  A    between atoms: _223  and  _224
REMARK   98  A    between atoms: _224  and  _225
REMARK   99  A    between atoms: _229  and  _231
REMARK  100  A    between atoms: _231  and  _232
REMARK  101  A    between atoms: _231  and  _234
REMARK  102  A    between atoms: _234  and  _235
REMARK  103  A    between atoms: _240  and  _242
REMARK  104  A    between atoms: _242  and  _243
REMARK  105  A    between atoms: _242  and  _245
REMARK  106  A    between atoms: _245  and  _246
REMARK  107  A    between atoms: _251  and  _252
REMARK  108  A    between atoms: _254  and  _256
REMARK  109  A    between atoms: _256  and  _257
REMARK  110  A    between atoms: _256  and  _259
REMARK  111  A    between atoms: _262  and  _264
REMARK  112  A    between atoms: _264  and  _265
REMARK  113  A    between atoms: _264  and  _267
REMARK  114  A    between atoms: _267  and  _268
REMARK  115  A    between atoms: _268  and  _269
REMARK  116  A    between atoms: _269  and  _270
REMARK  117  A    between atoms: _270  and  _271
REMARK  118  A    between atoms: _275  and  _277
REMARK  119  A    between atoms: _277  and  _278
REMARK  120  A    between atoms: _277  and  _280
REMARK  121  A    between atoms: _280  and  _281
REMARK  122  A    between atoms: _284  and  _286
REMARK  123  A    between atoms: _286  and  _287
REMARK  124  A    between atoms: _286  and  _289
REMARK  125  A    between atoms: _289  and  _290
REMARK  126  A    between atoms: _290  and  _291
REMARK  127  A    between atoms: _291  and  _292
REMARK  128  A    between atoms: _292  and  _293
REMARK                            x       y       z     vdW  Elec       q    Type
REMARK                         _______ _______ _______ _____ _____    ______ ____
ROOT
ATOM      1  CG  LYS A   1      22.162  40.947  37.457  0.00  0.00    -0.000 C 
ENDROOT
BRANCH   1   2
ATOM      2  CB  LYS A   1      21.016  41.810  37.982  0.00  0.00    +0.025 C 
BRANCH   2   3
ATOM      3  CA  LYS A   1      21.021  43.234  37.434  0.00  0.00    +0.133 C 
BRANCH   3   4
ATOM      4  N   LYS A   1      22.095  44.013  38.044  0.00  0.00    -0.239 NA
ATOM      5  H   LYS A   1      22.660  43.598  38.812  0.00  0.00    +0.142 HD
ENDBRANCH   3   4
BRANCH   3   6
ATOM      6  C   LYS A   1      19.645  43.857  37.624  0.00  0.00    +0.224 C 
ATOM      7  O   LYS A   1      18.772  43.692  36.770  0.00  0.00    -0.287 OA
ENDBRANCH   3   6
ENDBRANCH   2   3
ENDBRANCH   1   2
BRANCH   1   8
ATOM      8  CD  LYS A   1      22.244  39.650  38.246  0.00  0.00    -0.024 C 
BRANCH   8   9
ATOM      9  CE  LYS A   1      23.271  38.724  37.626  0.00  0.00    -0.086 C 
BRANCH   9  10
ATOM     10  NZ  LYS A   1      23.458  37.489  38.444  0.00  0.00    +0.380 N 
ATOM     11  HZ1 LYS A   1      23.783  37.751  39.396  0.00  0.00    -0.089 HD
ATOM     12  HZ2 LYS A   1      22.554  36.980  38.513  0.00  0.00    -0.089 HD
ATOM     13  HZ3 LYS A   1      24.167  36.878  37.991  0.00  0.00    -0.089 HD
ENDBRANCH   9  10
ENDBRANCH   8   9
ENDBRANCH   1   8
TORSDOF 7
REMARK  Name = ../refined-set-2016/4g0y/4g0y_pocket.pdb
REMARK  128 active torsions:
REMARK  status: ('A' for Active; 'I' for Inactive)
REMARK    1  A    between atoms: _1  and  _3
REMARK    2  A    between atoms: _3  and  _4
REMARK    3  A    between atoms: _3  and  _6
REMARK    4  A    between atoms: _6  and  _7
REMARK    5  A    between atoms: _10  and  _12
REMARK    6  A    between atoms: _12  and  _13
REMARK    7  A    between atoms: _12  and  _15
REMARK    8  A    between atoms: _15  and  _16
REMARK    9  A    between atoms: _19  and  _21
REMARK   10  A    between atoms: _21  and  _22
REMARK   11  A    between atoms: _21  and  _24
REMARK   12  A    between atoms: _27  and  _29
REMARK   13  A    between atoms: _29  and  _30
REMARK   14  A    between atoms: _29  and  _32
REMARK   15  A    between atoms: _32  and  _33
REMARK   16  A    between atoms: _37  and  _38
REMARK   17  A    between atoms: _43  and  _45
REMARK   18  A    between atoms: _45  and  _46
REMARK   19  A    between atoms: _45  and  _48
REMARK   20  A    between atoms: _48  and  _49
REMARK   21  A    between atoms: _52  and  _54
REMARK   22  A    between atoms: _54  and  _55
REMARK   23  A    between atoms: _54  and  _57
REMARK   24  A    between atoms: _57  and  _58
REMARK   25  A    between atoms: _63  and  _65
REMARK   26  A    between atoms: _65  and  _66
REMARK   27  A    between atoms: _65  and  _68
REMARK   28  A    between atoms: _68  and  _69
REMARK   29  A    between atoms: _74  and  _76
REMARK   30  A    between atoms: _76  and  _77
REMARK   31  A    between atoms: _79  and  _81
REMARK   32  A    between atoms: _81  and  _82
REMARK   33  A    between atoms: _81  and  _84
REMARK   34  A    between atoms: _84  and  _85
REMARK   35  A    between atoms: _87  and  _89
REMARK   36  A    between atoms: _89  and  _90
REMARK   37  A    between atoms: _89  and  _92
REMARK   38  A    between atoms: _92  and  _93
REMARK   39  A    between atoms: _96  and  _98
REMARK   40  A    between atoms: _98  and  _99
REMARK   41  A    between atoms: _98  and  _101
REMARK   42  A    between atoms: _101  and  _102
REMARK   43  A    between atoms: _107  and  _108
REMARK   44  A    between atoms: _110  and  _112
REMARK   45  A    between atoms: _112  and  _113
REMARK   46  A    between atoms: _115  and  _117
REMARK   47  A    between atoms: _117  and  _118
REMARK   48  A    between atoms: _117  and  _120
REMARK   49  A    between atoms: _120  and  _121
REMARK   50  A    between atoms: _124  and  _126
REMARK   51  A    between atoms: _126  and  _127
REMARK   52  A    between atoms: _126  and  _129
REMARK   53  A    between atoms: _129  and  _130
REMARK   54  A    between atoms: _133  and  _135
REMARK   55  A    between atoms: _135  and  _136
REMARK   56  A    between atoms: _135  and  _138
REMARK   57  A    between atoms: _138  and  _139
REMARK   58  A    between atoms: _139  and  _140
REMARK   59  A    between atoms: _140  and  _141
REMARK   60  A    between atoms: _141  and  _142
REMARK   61  A    between atoms: _146  and  _148
REMARK   62  A    between atoms: _148  and  _149
REMARK   63  A    between atoms: _148  and  _151
REMARK   64  A    between atoms: _151  and  _152
REMARK   65  A    between atoms: _152  and  _153
REMARK   66  A    between atoms: _156  and  _158
REMARK   67  A    between atoms: _158  and  _159
REMARK   68  A    between atoms: _158  and  _161
REMARK   69  A    between atoms: _164  and  _166
REMARK   70  A    between atoms: _166  and  _167
REMARK   71  A    between atoms: _166  and  _169
REMARK   72  A    between atoms: _169  and  _170
REMARK   73  A    between atoms: _172  and  _174
REMARK   74  A    between atoms: _174  and  _175
REMARK   75  A    between atoms: _174  and  _177
REMARK   76  A    between atoms: _177  and  _178
REMARK   77  A    between atoms: _178  and  _179
REMARK   78  A    between atoms: _184  and  _186
REMARK   79  A    between atoms: _186  and  _187
REMARK   80  A    between atoms: _186  and  _189
REMARK   81  A    between atoms: _191  and  _193
REMARK   82  A    between atoms: _193  and  _194
REMARK   83  A    between atoms: _193  and  _196
REMARK   84  A    between atoms: _198  and  _200
REMARK   85  A    between atoms: _200  and  _201
REMARK   86  A    between atoms: _200  and  _203
REMARK   87  A    between atoms: _203  and  _204
REMARK   88  A    between atoms: _207  and  _209
REMARK   89  A    between atoms: _209  and  _210
REMARK   90  A    between atoms: _209  and  _212
REMARK   91  A    between atoms: _212  and  _213
REMARK   92  A    between atoms: _216  and  _218
REMARK   93  A    between atoms: _218  and  _219
REMARK   94  A    between atoms: _218  and  _221
REMARK   95  A    between atoms: _221  and  _222
REMARK   96  A    between atoms: _222  and  _223
REMARK   97  A    between atoms: _223  and  _224
REMARK   98  A    between atoms: _224  and  _225
REMARK   99  A    between atoms: _229  and  _231
REMARK  100  A    between atoms: _231  and  _232
REMARK  101  A    between atoms: _231  and  _234
REMARK  102  A    between atoms: _234  and  _235
REMARK  103  A    between atoms: _240  and  _242
REMARK  104  A    between atoms: _242  and  _243
REMARK  105  A    between atoms: _242  and  _245
REMARK  106  A    between atoms: _245  and  _246
REMARK  107  A    between atoms: _251  and  _252
REMARK  108  A    between atoms: _254  and  _256
REMARK  109  A    between atoms: _256  and  _257
REMARK  110  A    between atoms: _256  and  _259
REMARK  111  A    between atoms: _262  and  _264
REMARK  112  A    between atoms: _264  and  _265
REMARK  113  A    between atoms: _264  and  _267
REMARK  114  A    between atoms: _267  and  _268
REMARK  115  A    between atoms: _268  and  _269
REMARK  116  A    between atoms: _269  and  _270
REMARK  117  A    between atoms: _270  and  _271
REMARK  118  A    between atoms: _275  and  _277
REMARK  119  A    between atoms: _277  and  _278
REMARK  120  A    between atoms: _277  and  _280
REMARK  121  A    between atoms: _280  and  _281
REMARK  122  A    between atoms: _284  and  _286
REMARK  123  A    between atoms: _286  and  _287
REMARK  124  A    between atoms: _286  and  _289
REMARK  125  A    between atoms: _289  and  _290
REMARK  126  A    between atoms: _290  and  _291
REMARK  127  A    between atoms: _291  and  _292
REMARK  128  A    between atoms: _292  and  _293
REMARK                            x       y       z     vdW  Elec       q    Type
REMARK                         _______ _______ _______ _____ _____    ______ ____
ROOT
ATOM      1  O   HOH     1      25.342  24.717  32.855  0.00  0.00    +0.000 OA
ENDROOT
TORSDOF 0
REMARK  Name = ../refined-set-2016/4g0y/4g0y_pocket.pdb
REMARK  128 active torsions:
REMARK  status: ('A' for Active; 'I' for Inactive)
REMARK    1  A    between atoms: _1  and  _3
REMARK    2  A    between atoms: _3  and  _4
REMARK    3  A    between atoms: _3  and  _6
REMARK    4  A    between atoms: _6  and  _7
REMARK    5  A    between atoms: _10  and  _12
REMARK    6  A    between atoms: _12  and  _13
REMARK    7  A    between atoms: _12  and  _15
REMARK    8  A    between atoms: _15  and  _16
REMARK    9  A    between atoms: _19  and  _21
REMARK   10  A    between atoms: _21  and  _22
REMARK   11  A    between atoms: _21  and  _24
REMARK   12  A    between atoms: _27  and  _29
REMARK   13  A    between atoms: _29  and  _30
REMARK   14  A    between atoms: _29  and  _32
REMARK   15  A    between atoms: _32  and  _33
REMARK   16  A    between atoms: _37  and  _38
REMARK   17  A    between atoms: _43  and  _45
REMARK   18  A    between atoms: _45  and  _46
REMARK   19  A    between atoms: _45  and  _48
REMARK   20  A    between atoms: _48  and  _49
REMARK   21  A    between atoms: _52  and  _54
REMARK   22  A    between atoms: _54  and  _55
REMARK   23  A    between atoms: _54  and  _57
REMARK   24  A    between atoms: _57  and  _58
REMARK   25  A    between atoms: _63  and  _65
REMARK   26  A    between atoms: _65  and  _66
REMARK   27  A    between atoms: _65  and  _68
REMARK   28  A    between atoms: _68  and  _69
REMARK   29  A    between atoms: _74  and  _76
REMARK   30  A    between atoms: _76  and  _77
REMARK   31  A    between atoms: _79  and  _81
REMARK   32  A    between atoms: _81  and  _82
REMARK   33  A    between atoms: _81  and  _84
REMARK   34  A    between atoms: _84  and  _85
REMARK   35  A    between atoms: _87  and  _89
REMARK   36  A    between atoms: _89  and  _90
REMARK   37  A    between atoms: _89  and  _92
REMARK   38  A    between atoms: _92  and  _93
REMARK   39  A    between atoms: _96  and  _98
REMARK   40  A    between atoms: _98  and  _99
REMARK   41  A    between atoms: _98  and  _101
REMARK   42  A    between atoms: _101  and  _102
REMARK   43  A    between atoms: _107  and  _108
REMARK   44  A    between atoms: _110  and  _112
REMARK   45  A    between atoms: _112  and  _113
REMARK   46  A    between atoms: _115  and  _117
REMARK   47  A    between atoms: _117  and  _118
REMARK   48  A    between atoms: _117  and  _120
REMARK   49  A    between atoms: _120  and  _121
REMARK   50  A    between atoms: _124  and  _126
REMARK   51  A    between atoms: _126  and  _127
REMARK   52  A    between atoms: _126  and  _129
REMARK   53  A    between atoms: _129  and  _130
REMARK   54  A    between atoms: _133  and  _135
REMARK   55  A    between atoms: _135  and  _136
REMARK   56  A    between atoms: _135  and  _138
REMARK   57  A    between atoms: _138  and  _139
REMARK   58  A    between atoms: _139  and  _140
REMARK   59  A    between atoms: _140  and  _141
REMARK   60  A    between atoms: _141  and  _142
REMARK   61  A    between atoms: _146  and  _148
REMARK   62  A    between atoms: _148  and  _149
REMARK   63  A    between atoms: _148  and  _151
REMARK   64  A    between atoms: _151  and  _152
REMARK   65  A    between atoms: _152  and  _153
REMARK   66  A    between atoms: _156  and  _158
REMARK   67  A    between atoms: _158  and  _159
REMARK   68  A    between atoms: _158  and  _161
REMARK   69  A    between atoms: _164  and  _166
REMARK   70  A    between atoms: _166  and  _167
REMARK   71  A    between atoms: _166  and  _169
REMARK   72  A    between atoms: _169  and  _170
REMARK   73  A    between atoms: _172  and  _174
REMARK   74  A    between atoms: _174  and  _175
REMARK   75  A    between atoms: _174  and  _177
REMARK   76  A    between atoms: _177  and  _178
REMARK   77  A    between atoms: _178  and  _179
REMARK   78  A    between atoms: _184  and  _186
REMARK   79  A    between atoms: _186  and  _187
REMARK   80  A    between atoms: _186  and  _189
REMARK   81  A    between atoms: _191  and  _193
REMARK   82  A    between atoms: _193  and  _194
REMARK   83  A    between atoms: _193  and  _196
REMARK   84  A    between atoms: _198  and  _200
REMARK   85  A    between atoms: _200  and  _201
REMARK   86  A    between atoms: _200  and  _203
REMARK   87  A    between atoms: _203  and  _204
REMARK   88  A    between atoms: _207  and  _209
REMARK   89  A    between atoms: _209  and  _210
REMARK   90  A    between atoms: _209  and  _212
REMARK   91  A    between atoms: _212  and  _213
REMARK   92  A    between atoms: _216  and  _218
REMARK   93  A    between atoms: _218  and  _219
REMARK   94  A    between atoms: _218  and  _221
REMARK   95  A    between atoms: _221  and  _222
REMARK   96  A    between atoms: _222  and  _223
REMARK   97  A    between atoms: _223  and  _224
REMARK   98  A    between atoms: _224  and  _225
REMARK   99  A    between atoms: _229  and  _231
REMARK  100  A    between atoms: _231  and  _232
REMARK  101  A    between atoms: _231  and  _234
REMARK  102  A    between atoms: _234  and  _235
REMARK  103  A    between atoms: _240  and  _242
REMARK  104  A    between atoms: _242  and  _243
REMARK  105  A    between atoms: _242  and  _245
REMARK  106  A    between atoms: _245  and  _246
REMARK  107  A    between atoms: _251  and  _252
REMARK  108  A    between atoms: _254  and  _256
REMARK  109  A    between atoms: _256  and  _257
REMARK  110  A    between atoms: _256  and  _259
REMARK  111  A    between atoms: _262  and  _264
REMARK  112  A    between atoms: _264  and  _265
REMARK  113  A    between atoms: _264  and  _267
REMARK  114  A    between atoms: _267  and  _268
REMARK  115  A    between atoms: _268  and  _269
REMARK  116  A    between atoms: _269  and  _270
REMARK  117  A    between atoms: _270  and  _271
REMARK  118  A    between atoms: _275  and  _277
REMARK  119  A    between atoms: _277  and  _278
REMARK  120  A    between atoms: _277  and  _280
REMARK  121  A    between atoms: _280  and  _281
REMARK  122  A    between atoms: _284  and  _286
REMARK  123  A    between atoms: _286  and  _287
REMARK  124  A    between atoms: _286  and  _289
REMARK  125  A    between atoms: _289  and  _290
REMARK  126  A    between atoms: _290  and  _291
REMARK  127  A    between atoms: _291  and  _292
REMARK  128  A    between atoms: _292  and  _293
REMARK                            x       y       z     vdW  Elec       q    Type
REMARK                         _______ _______ _______ _____ _____    ______ ____
ROOT
ATOM      1  O   HOH     1      18.117  35.387  35.084  0.00  0.00    +0.000 OA
ENDROOT
TORSDOF 0
REMARK  Name = ../refined-set-2016/4g0y/4g0y_pocket.pdb
REMARK  128 active torsions:
REMARK  status: ('A' for Active; 'I' for Inactive)
REMARK    1  A    between atoms: _1  and  _3
REMARK    2  A    between atoms: _3  and  _4
REMARK    3  A    between atoms: _3  and  _6
REMARK    4  A    between atoms: _6  and  _7
REMARK    5  A    between atoms: _10  and  _12
REMARK    6  A    between atoms: _12  and  _13
REMARK    7  A    between atoms: _12  and  _15
REMARK    8  A    between atoms: _15  and  _16
REMARK    9  A    between atoms: _19  and  _21
REMARK   10  A    between atoms: _21  and  _22
REMARK   11  A    between atoms: _21  and  _24
REMARK   12  A    between atoms: _27  and  _29
REMARK   13  A    between atoms: _29  and  _30
REMARK   14  A    between atoms: _29  and  _32
REMARK   15  A    between atoms: _32  and  _33
REMARK   16  A    between atoms: _37  and  _38
REMARK   17  A    between atoms: _43  and  _45
REMARK   18  A    between atoms: _45  and  _46
REMARK   19  A    between atoms: _45  and  _48
REMARK   20  A    between atoms: _48  and  _49
REMARK   21  A    between atoms: _52  and  _54
REMARK   22  A    between atoms: _54  and  _55
REMARK   23  A    between atoms: _54  and  _57
REMARK   24  A    between atoms: _57  and  _58
REMARK   25  A    between atoms: _63  and  _65
REMARK   26  A    between atoms: _65  and  _66
REMARK   27  A    between atoms: _65  and  _68
REMARK   28  A    between atoms: _68  and  _69
REMARK   29  A    between atoms: _74  and  _76
REMARK   30  A    between atoms: _76  and  _77
REMARK   31  A    between atoms: _79  and  _81
REMARK   32  A    between atoms: _81  and  _82
REMARK   33  A    between atoms: _81  and  _84
REMARK   34  A    between atoms: _84  and  _85
REMARK   35  A    between atoms: _87  and  _89
REMARK   36  A    between atoms: _89  and  _90
REMARK   37  A    between atoms: _89  and  _92
REMARK   38  A    between atoms: _92  and  _93
REMARK   39  A    between atoms: _96  and  _98
REMARK   40  A    between atoms: _98  and  _99
REMARK   41  A    between atoms: _98  and  _101
REMARK   42  A    between atoms: _101  and  _102
REMARK   43  A    between atoms: _107  and  _108
REMARK   44  A    between atoms: _110  and  _112
REMARK   45  A    between atoms: _112  and  _113
REMARK   46  A    between atoms: _115  and  _117
REMARK   47  A    between atoms: _117  and  _118
REMARK   48  A    between atoms: _117  and  _120
REMARK   49  A    between atoms: _120  and  _121
REMARK   50  A    between atoms: _124  and  _126
REMARK   51  A    between atoms: _126  and  _127
REMARK   52  A    between atoms: _126  and  _129
REMARK   53  A    between atoms: _129  and  _130
REMARK   54  A    between atoms: _133  and  _135
REMARK   55  A    between atoms: _135  and  _136
REMARK   56  A    between atoms: _135  and  _138
REMARK   57  A    between atoms: _138  and  _139
REMARK   58  A    between atoms: _139  and  _140
REMARK   59  A    between atoms: _140  and  _141
REMARK   60  A    between atoms: _141  and  _142
REMARK   61  A    between atoms: _146  and  _148
REMARK   62  A    between atoms: _148  and  _149
REMARK   63  A    between atoms: _148  and  _151
REMARK   64  A    between atoms: _151  and  _152
REMARK   65  A    between atoms: _152  and  _153
REMARK   66  A    between atoms: _156  and  _158
REMARK   67  A    between atoms: _158  and  _159
REMARK   68  A    between atoms: _158  and  _161
REMARK   69  A    between atoms: _164  and  _166
REMARK   70  A    between atoms: _166  and  _167
REMARK   71  A    between atoms: _166  and  _169
REMARK   72  A    between atoms: _169  and  _170
REMARK   73  A    between atoms: _172  and  _174
REMARK   74  A    between atoms: _174  and  _175
REMARK   75  A    between atoms: _174  and  _177
REMARK   76  A    between atoms: _177  and  _178
REMARK   77  A    between atoms: _178  and  _179
REMARK   78  A    between atoms: _184  and  _186
REMARK   79  A    between atoms: _186  and  _187
REMARK   80  A    between atoms: _186  and  _189
REMARK   81  A    between atoms: _191  and  _193
REMARK   82  A    between atoms: _193  and  _194
REMARK   83  A    between atoms: _193  and  _196
REMARK   84  A    between atoms: _198  and  _200
REMARK   85  A    between atoms: _200  and  _201
REMARK   86  A    between atoms: _200  and  _203
REMARK   87  A    between atoms: _203  and  _204
REMARK   88  A    between atoms: _207  and  _209
REMARK   89  A    between atoms: _209  and  _210
REMARK   90  A    between atoms: _209  and  _212
REMARK   91  A    between atoms: _212  and  _213
REMARK   92  A    between atoms: _216  and  _218
REMARK   93  A    between atoms: _218  and  _219
REMARK   94  A    between atoms: _218  and  _221
REMARK   95  A    between atoms: _221  and  _222
REMARK   96  A    between atoms: _222  and  _223
REMARK   97  A    between atoms: _223  and  _224
REMARK   98  A    between atoms: _224  and  _225
REMARK   99  A    between atoms: _229  and  _231
REMARK  100  A    between atoms: _231  and  _232
REMARK  101  A    between atoms: _231  and  _234
REMARK  102  A    between atoms: _234  and  _235
REMARK  103  A    between atoms: _240  and  _242
REMARK  104  A    between atoms: _242  and  _243
REMARK  105  A    between atoms: _242  and  _245
REMARK  106  A    between atoms: _245  and  _246
REMARK  107  A    between atoms: _251  and  _252
REMARK  108  A    between atoms: _254  and  _256
REMARK  109  A    between atoms: _256  and  _257
REMARK  110  A    between atoms: _256  and  _259
REMARK  111  A    between atoms: _262  and  _264
REMARK  112  A    between atoms: _264  and  _265
REMARK  113  A    between atoms: _264  and  _267
REMARK  114  A    between atoms: _267  and  _268
REMARK  115  A    between atoms: _268  and  _269
REMARK  116  A    between atoms: _269  and  _270
REMARK  117  A    between atoms: _270  and  _271
REMARK  118  A    between atoms: _275  and  _277
REMARK  119  A    between atoms: _277  and  _278
REMARK  120  A    between atoms: _277  and  _280
REMARK  121  A    between atoms: _280  and  _281
REMARK  122  A    between atoms: _284  and  _286
REMARK  123  A    between atoms: _286  and  _287
REMARK  124  A    between atoms: _286  and  _289
REMARK  125  A    between atoms: _289  and  _290
REMARK  126  A    between atoms: _290  and  _291
REMARK  127  A    between atoms: _291  and  _292
REMARK  128  A    between atoms: _292  and  _293
REMARK                            x       y       z     vdW  Elec       q    Type
REMARK                         _______ _______ _______ _____ _____    ______ ____
ROOT
ATOM      1  O   HOH     1      29.635  23.580  37.403  0.00  0.00    +0.000 OA
ENDROOT
TORSDOF 0
REMARK  Name = ../refined-set-2016/4g0y/4g0y_pocket.pdb
REMARK  128 active torsions:
REMARK  status: ('A' for Active; 'I' for Inactive)
REMARK    1  A    between atoms: _1  and  _3
REMARK    2  A    between atoms: _3  and  _4
REMARK    3  A    between atoms: _3  and  _6
REMARK    4  A    between atoms: _6  and  _7
REMARK    5  A    between atoms: _10  and  _12
REMARK    6  A    between atoms: _12  and  _13
REMARK    7  A    between atoms: _12  and  _15
REMARK    8  A    between atoms: _15  and  _16
REMARK    9  A    between atoms: _19  and  _21
REMARK   10  A    between atoms: _21  and  _22
REMARK   11  A    between atoms: _21  and  _24
REMARK   12  A    between atoms: _27  and  _29
REMARK   13  A    between atoms: _29  and  _30
REMARK   14  A    between atoms: _29  and  _32
REMARK   15  A    between atoms: _32  and  _33
REMARK   16  A    between atoms: _37  and  _38
REMARK   17  A    between atoms: _43  and  _45
REMARK   18  A    between atoms: _45  and  _46
REMARK   19  A    between atoms: _45  and  _48
REMARK   20  A    between atoms: _48  and  _49
REMARK   21  A    between atoms: _52  and  _54
REMARK   22  A    between atoms: _54  and  _55
REMARK   23  A    between atoms: _54  and  _57
REMARK   24  A    between atoms: _57  and  _58
REMARK   25  A    between atoms: _63  and  _65
REMARK   26  A    between atoms: _65  and  _66
REMARK   27  A    between atoms: _65  and  _68
REMARK   28  A    between atoms: _68  and  _69
REMARK   29  A    between atoms: _74  and  _76
REMARK   30  A    between atoms: _76  and  _77
REMARK   31  A    between atoms: _79  and  _81
REMARK   32  A    between atoms: _81  and  _82
REMARK   33  A    between atoms: _81  and  _84
REMARK   34  A    between atoms: _84  and  _85
REMARK   35  A    between atoms: _87  and  _89
REMARK   36  A    between atoms: _89  and  _90
REMARK   37  A    between atoms: _89  and  _92
REMARK   38  A    between atoms: _92  and  _93
REMARK   39  A    between atoms: _96  and  _98
REMARK   40  A    between atoms: _98  and  _99
REMARK   41  A    between atoms: _98  and  _101
REMARK   42  A    between atoms: _101  and  _102
REMARK   43  A    between atoms: _107  and  _108
REMARK   44  A    between atoms: _110  and  _112
REMARK   45  A    between atoms: _112  and  _113
REMARK   46  A    between atoms: _115  and  _117
REMARK   47  A    between atoms: _117  and  _118
REMARK   48  A    between atoms: _117  and  _120
REMARK   49  A    between atoms: _120  and  _121
REMARK   50  A    between atoms: _124  and  _126
REMARK   51  A    between atoms: _126  and  _127
REMARK   52  A    between atoms: _126  and  _129
REMARK   53  A    between atoms: _129  and  _130
REMARK   54  A    between atoms: _133  and  _135
REMARK   55  A    between atoms: _135  and  _136
REMARK   56  A    between atoms: _135  and  _138
REMARK   57  A    between atoms: _138  and  _139
REMARK   58  A    between atoms: _139  and  _140
REMARK   59  A    between atoms: _140  and  _141
REMARK   60  A    between atoms: _141  and  _142
REMARK   61  A    between atoms: _146  and  _148
REMARK   62  A    between atoms: _148  and  _149
REMARK   63  A    between atoms: _148  and  _151
REMARK   64  A    between atoms: _151  and  _152
REMARK   65  A    between atoms: _152  and  _153
REMARK   66  A    between atoms: _156  and  _158
REMARK   67  A    between atoms: _158  and  _159
REMARK   68  A    between atoms: _158  and  _161
REMARK   69  A    between atoms: _164  and  _166
REMARK   70  A    between atoms: _166  and  _167
REMARK   71  A    between atoms: _166  and  _169
REMARK   72  A    between atoms: _169  and  _170
REMARK   73  A    between atoms: _172  and  _174
REMARK   74  A    between atoms: _174  and  _175
REMARK   75  A    between atoms: _174  and  _177
REMARK   76  A    between atoms: _177  and  _178
REMARK   77  A    between atoms: _178  and  _179
REMARK   78  A    between atoms: _184  and  _186
REMARK   79  A    between atoms: _186  and  _187
REMARK   80  A    between atoms: _186  and  _189
REMARK   81  A    between atoms: _191  and  _193
REMARK   82  A    between atoms: _193  and  _194
REMARK   83  A    between atoms: _193  and  _196
REMARK   84  A    between atoms: _198  and  _200
REMARK   85  A    between atoms: _200  and  _201
REMARK   86  A    between atoms: _200  and  _203
REMARK   87  A    between atoms: _203  and  _204
REMARK   88  A    between atoms: _207  and  _209
REMARK   89  A    between atoms: _209  and  _210
REMARK   90  A    between atoms: _209  and  _212
REMARK   91  A    between atoms: _212  and  _213
REMARK   92  A    between atoms: _216  and  _218
REMARK   93  A    between atoms: _218  and  _219
REMARK   94  A    between atoms: _218  and  _221
REMARK   95  A    between atoms: _221  and  _222
REMARK   96  A    between atoms: _222  and  _223
REMARK   97  A    between atoms: _223  and  _224
REMARK   98  A    between atoms: _224  and  _225
REMARK   99  A    between atoms: _229  and  _231
REMARK  100  A    between atoms: _231  and  _232
REMARK  101  A    between atoms: _231  and  _234
REMARK  102  A    between atoms: _234  and  _235
REMARK  103  A    between atoms: _240  and  _242
REMARK  104  A    between atoms: _242  and  _243
REMARK  105  A    between atoms: _242  and  _245
REMARK  106  A    between atoms: _245  and  _246
REMARK  107  A    between atoms: _251  and  _252
REMARK  108  A    between atoms: _254  and  _256
REMARK  109  A    between atoms: _256  and  _257
REMARK  110  A    between atoms: _256  and  _259
REMARK  111  A    between atoms: _262  and  _264
REMARK  112  A    between atoms: _264  and  _265
REMARK  113  A    between atoms: _264  and  _267
REMARK  114  A    between atoms: _267  and  _268
REMARK  115  A    between atoms: _268  and  _269
REMARK  116  A    between atoms: _269  and  _270
REMARK  117  A    between atoms: _270  and  _271
REMARK  118  A    between atoms: _275  and  _277
REMARK  119  A    between atoms: _277  and  _278
REMARK  120  A    between atoms: _277  and  _280
REMARK  121  A    between atoms: _280  and  _281
REMARK  122  A    between atoms: _284  and  _286
REMARK  123  A    between atoms: _286  and  _287
REMARK  124  A    between atoms: _286  and  _289
REMARK  125  A    between atoms: _289  and  _290
REMARK  126  A    between atoms: _290  and  _291
REMARK  127  A    between atoms: _291  and  _292
REMARK  128  A    between atoms: _292  and  _293
REMARK                            x       y       z     vdW  Elec       q    Type
REMARK                         _______ _______ _______ _____ _____    ______ ____
ROOT
ATOM      1  O   HOH     1      25.890  41.676  37.550  0.00  0.00    +0.000 OA
ENDROOT
TORSDOF 0
REMARK  Name = ../refined-set-2016/4g0y/4g0y_pocket.pdb
REMARK  128 active torsions:
REMARK  status: ('A' for Active; 'I' for Inactive)
REMARK    1  A    between atoms: _1  and  _3
REMARK    2  A    between atoms: _3  and  _4
REMARK    3  A    between atoms: _3  and  _6
REMARK    4  A    between atoms: _6  and  _7
REMARK    5  A    between atoms: _10  and  _12
REMARK    6  A    between atoms: _12  and  _13
REMARK    7  A    between atoms: _12  and  _15
REMARK    8  A    between atoms: _15  and  _16
REMARK    9  A    between atoms: _19  and  _21
REMARK   10  A    between atoms: _21  and  _22
REMARK   11  A    between atoms: _21  and  _24
REMARK   12  A    between atoms: _27  and  _29
REMARK   13  A    between atoms: _29  and  _30
REMARK   14  A    between atoms: _29  and  _32
REMARK   15  A    between atoms: _32  and  _33
REMARK   16  A    between atoms: _37  and  _38
REMARK   17  A    between atoms: _43  and  _45
REMARK   18  A    between atoms: _45  and  _46
REMARK   19  A    between atoms: _45  and  _48
REMARK   20  A    between atoms: _48  and  _49
REMARK   21  A    between atoms: _52  and  _54
REMARK   22  A    between atoms: _54  and  _55
REMARK   23  A    between atoms: _54  and  _57
REMARK   24  A    between atoms: _57  and  _58
REMARK   25  A    between atoms: _63  and  _65
REMARK   26  A    between atoms: _65  and  _66
REMARK   27  A    between atoms: _65  and  _68
REMARK   28  A    between atoms: _68  and  _69
REMARK   29  A    between atoms: _74  and  _76
REMARK   30  A    between atoms: _76  and  _77
REMARK   31  A    between atoms: _79  and  _81
REMARK   32  A    between atoms: _81  and  _82
REMARK   33  A    between atoms: _81  and  _84
REMARK   34  A    between atoms: _84  and  _85
REMARK   35  A    between atoms: _87  and  _89
REMARK   36  A    between atoms: _89  and  _90
REMARK   37  A    between atoms: _89  and  _92
REMARK   38  A    between atoms: _92  and  _93
REMARK   39  A    between atoms: _96  and  _98
REMARK   40  A    between atoms: _98  and  _99
REMARK   41  A    between atoms: _98  and  _101
REMARK   42  A    between atoms: _101  and  _102
REMARK   43  A    between atoms: _107  and  _108
REMARK   44  A    between atoms: _110  and  _112
REMARK   45  A    between atoms: _112  and  _113
REMARK   46  A    between atoms: _115  and  _117
REMARK   47  A    between atoms: _117  and  _118
REMARK   48  A    between atoms: _117  and  _120
REMARK   49  A    between atoms: _120  and  _121
REMARK   50  A    between atoms: _124  and  _126
REMARK   51  A    between atoms: _126  and  _127
REMARK   52  A    between atoms: _126  and  _129
REMARK   53  A    between atoms: _129  and  _130
REMARK   54  A    between atoms: _133  and  _135
REMARK   55  A    between atoms: _135  and  _136
REMARK   56  A    between atoms: _135  and  _138
REMARK   57  A    between atoms: _138  and  _139
REMARK   58  A    between atoms: _139  and  _140
REMARK   59  A    between atoms: _140  and  _141
REMARK   60  A    between atoms: _141  and  _142
REMARK   61  A    between atoms: _146  and  _148
REMARK   62  A    between atoms: _148  and  _149
REMARK   63  A    between atoms: _148  and  _151
REMARK   64  A    between atoms: _151  and  _152
REMARK   65  A    between atoms: _152  and  _153
REMARK   66  A    between atoms: _156  and  _158
REMARK   67  A    between atoms: _158  and  _159
REMARK   68  A    between atoms: _158  and  _161
REMARK   69  A    between atoms: _164  and  _166
REMARK   70  A    between atoms: _166  and  _167
REMARK   71  A    between atoms: _166  and  _169
REMARK   72  A    between atoms: _169  and  _170
REMARK   73  A    between atoms: _172  and  _174
REMARK   74  A    between atoms: _174  and  _175
REMARK   75  A    between atoms: _174  and  _177
REMARK   76  A    between atoms: _177  and  _178
REMARK   77  A    between atoms: _178  and  _179
REMARK   78  A    between atoms: _184  and  _186
REMARK   79  A    between atoms: _186  and  _187
REMARK   80  A    between atoms: _186  and  _189
REMARK   81  A    between atoms: _191  and  _193
REMARK   82  A    between atoms: _193  and  _194
REMARK   83  A    between atoms: _193  and  _196
REMARK   84  A    between atoms: _198  and  _200
REMARK   85  A    between atoms: _200  and  _201
REMARK   86  A    between atoms: _200  and  _203
REMARK   87  A    between atoms: _203  and  _204
REMARK   88  A    between atoms: _207  and  _209
REMARK   89  A    between atoms: _209  and  _210
REMARK   90  A    between atoms: _209  and  _212
REMARK   91  A    between atoms: _212  and  _213
REMARK   92  A    between atoms: _216  and  _218
REMARK   93  A    between atoms: _218  and  _219
REMARK   94  A    between atoms: _218  and  _221
REMARK   95  A    between atoms: _221  and  _222
REMARK   96  A    between atoms: _222  and  _223
REMARK   97  A    between atoms: _223  and  _224
REMARK   98  A    between atoms: _224  and  _225
REMARK   99  A    between atoms: _229  and  _231
REMARK  100  A    between atoms: _231  and  _232
REMARK  101  A    between atoms: _231  and  _234
REMARK  102  A    between atoms: _234  and  _235
REMARK  103  A    between atoms: _240  and  _242
REMARK  104  A    between atoms: _242  and  _243
REMARK  105  A    between atoms: _242  and  _245
REMARK  106  A    between atoms: _245  and  _246
REMARK  107  A    between atoms: _251  and  _252
REMARK  108  A    between atoms: _254  and  _256
REMARK  109  A    between atoms: _256  and  _257
REMARK  110  A    between atoms: _256  and  _259
REMARK  111  A    between atoms: _262  and  _264
REMARK  112  A    between atoms: _264  and  _265
REMARK  113  A    between atoms: _264  and  _267
REMARK  114  A    between atoms: _267  and  _268
REMARK  115  A    between atoms: _268  and  _269
REMARK  116  A    between atoms: _269  and  _270
REMARK  117  A    between atoms: _270  and  _271
REMARK  118  A    between atoms: _275  and  _277
REMARK  119  A    between atoms: _277  and  _278
REMARK  120  A    between atoms: _277  and  _280
REMARK  121  A    between atoms: _280  and  _281
REMARK  122  A    between atoms: _284  and  _286
REMARK  123  A    between atoms: _286  and  _287
REMARK  124  A    between atoms: _286  and  _289
REMARK  125  A    between atoms: _289  and  _290
REMARK  126  A    between atoms: _290  and  _291
REMARK  127  A    between atoms: _291  and  _292
REMARK  128  A    between atoms: _292  and  _293
REMARK                            x       y       z     vdW  Elec       q    Type
REMARK                         _______ _______ _______ _____ _____    ______ ____
ROOT
ATOM      1  O   HOH     1      23.009  39.776  34.045  0.00  0.00    +0.000 OA
ENDROOT
TORSDOF 0
REMARK  Name = ../refined-set-2016/4g0y/4g0y_pocket.pdb
REMARK  128 active torsions:
REMARK  status: ('A' for Active; 'I' for Inactive)
REMARK    1  A    between atoms: _1  and  _3
REMARK    2  A    between atoms: _3  and  _4
REMARK    3  A    between atoms: _3  and  _6
REMARK    4  A    between atoms: _6  and  _7
REMARK    5  A    between atoms: _10  and  _12
REMARK    6  A    between atoms: _12  and  _13
REMARK    7  A    between atoms: _12  and  _15
REMARK    8  A    between atoms: _15  and  _16
REMARK    9  A    between atoms: _19  and  _21
REMARK   10  A    between atoms: _21  and  _22
REMARK   11  A    between atoms: _21  and  _24
REMARK   12  A    between atoms: _27  and  _29
REMARK   13  A    between atoms: _29  and  _30
REMARK   14  A    between atoms: _29  and  _32
REMARK   15  A    between atoms: _32  and  _33
REMARK   16  A    between atoms: _37  and  _38
REMARK   17  A    between atoms: _43  and  _45
REMARK   18  A    between atoms: _45  and  _46
REMARK   19  A    between atoms: _45  and  _48
REMARK   20  A    between atoms: _48  and  _49
REMARK   21  A    between atoms: _52  and  _54
REMARK   22  A    between atoms: _54  and  _55
REMARK   23  A    between atoms: _54  and  _57
REMARK   24  A    between atoms: _57  and  _58
REMARK   25  A    between atoms: _63  and  _65
REMARK   26  A    between atoms: _65  and  _66
REMARK   27  A    between atoms: _65  and  _68
REMARK   28  A    between atoms: _68  and  _69
REMARK   29  A    between atoms: _74  and  _76
REMARK   30  A    between atoms: _76  and  _77
REMARK   31  A    between atoms: _79  and  _81
REMARK   32  A    between atoms: _81  and  _82
REMARK   33  A    between atoms: _81  and  _84
REMARK   34  A    between atoms: _84  and  _85
REMARK   35  A    between atoms: _87  and  _89
REMARK   36  A    between atoms: _89  and  _90
REMARK   37  A    between atoms: _89  and  _92
REMARK   38  A    between atoms: _92  and  _93
REMARK   39  A    between atoms: _96  and  _98
REMARK   40  A    between atoms: _98  and  _99
REMARK   41  A    between atoms: _98  and  _101
REMARK   42  A    between atoms: _101  and  _102
REMARK   43  A    between atoms: _107  and  _108
REMARK   44  A    between atoms: _110  and  _112
REMARK   45  A    between atoms: _112  and  _113
REMARK   46  A    between atoms: _115  and  _117
REMARK   47  A    between atoms: _117  and  _118
REMARK   48  A    between atoms: _117  and  _120
REMARK   49  A    between atoms: _120  and  _121
REMARK   50  A    between atoms: _124  and  _126
REMARK   51  A    between atoms: _126  and  _127
REMARK   52  A    between atoms: _126  and  _129
REMARK   53  A    between atoms: _129  and  _130
REMARK   54  A    between atoms: _133  and  _135
REMARK   55  A    between atoms: _135  and  _136
REMARK   56  A    between atoms: _135  and  _138
REMARK   57  A    between atoms: _138  and  _139
REMARK   58  A    between atoms: _139  and  _140
REMARK   59  A    between atoms: _140  and  _141
REMARK   60  A    between atoms: _141  and  _142
REMARK   61  A    between atoms: _146  and  _148
REMARK   62  A    between atoms: _148  and  _149
REMARK   63  A    between atoms: _148  and  _151
REMARK   64  A    between atoms: _151  and  _152
REMARK   65  A    between atoms: _152  and  _153
REMARK   66  A    between atoms: _156  and  _158
REMARK   67  A    between atoms: _158  and  _159
REMARK   68  A    between atoms: _158  and  _161
REMARK   69  A    between atoms: _164  and  _166
REMARK   70  A    between atoms: _166  and  _167
REMARK   71  A    between atoms: _166  and  _169
REMARK   72  A    between atoms: _169  and  _170
REMARK   73  A    between atoms: _172  and  _174
REMARK   74  A    between atoms: _174  and  _175
REMARK   75  A    between atoms: _174  and  _177
REMARK   76  A    between atoms: _177  and  _178
REMARK   77  A    between atoms: _178  and  _179
REMARK   78  A    between atoms: _184  and  _186
REMARK   79  A    between atoms: _186  and  _187
REMARK   80  A    between atoms: _186  and  _189
REMARK   81  A    between atoms: _191  and  _193
REMARK   82  A    between atoms: _193  and  _194
REMARK   83  A    between atoms: _193  and  _196
REMARK   84  A    between atoms: _198  and  _200
REMARK   85  A    between atoms: _200  and  _201
REMARK   86  A    between atoms: _200  and  _203
REMARK   87  A    between atoms: _203  and  _204
REMARK   88  A    between atoms: _207  and  _209
REMARK   89  A    between atoms: _209  and  _210
REMARK   90  A    between atoms: _209  and  _212
REMARK   91  A    between atoms: _212  and  _213
REMARK   92  A    between atoms: _216  and  _218
REMARK   93  A    between atoms: _218  and  _219
REMARK   94  A    between atoms: _218  and  _221
REMARK   95  A    between atoms: _221  and  _222
REMARK   96  A    between atoms: _222  and  _223
REMARK   97  A    between atoms: _223  and  _224
REMARK   98  A    between atoms: _224  and  _225
REMARK   99  A    between atoms: _229  and  _231
REMARK  100  A    between atoms: _231  and  _232
REMARK  101  A    between atoms: _231  and  _234
REMARK  102  A    between atoms: _234  and  _235
REMARK  103  A    between atoms: _240  and  _242
REMARK  104  A    between atoms: _242  and  _243
REMARK  105  A    between atoms: _242  and  _245
REMARK  106  A    between atoms: _245  and  _246
REMARK  107  A    between atoms: _251  and  _252
REMARK  108  A    between atoms: _254  and  _256
REMARK  109  A    between atoms: _256  and  _257
REMARK  110  A    between atoms: _256  and  _259
REMARK  111  A    between atoms: _262  and  _264
REMARK  112  A    between atoms: _264  and  _265
REMARK  113  A    between atoms: _264  and  _267
REMARK  114  A    between atoms: _267  and  _268
REMARK  115  A    between atoms: _268  and  _269
REMARK  116  A    between atoms: _269  and  _270
REMARK  117  A    between atoms: _270  and  _271
REMARK  118  A    between atoms: _275  and  _277
REMARK  119  A    between atoms: _277  and  _278
REMARK  120  A    between atoms: _277  and  _280
REMARK  121  A    between atoms: _280  and  _281
REMARK  122  A    between atoms: _284  and  _286
REMARK  123  A    between atoms: _286  and  _287
REMARK  124  A    between atoms: _286  and  _289
REMARK  125  A    between atoms: _289  and  _290
REMARK  126  A    between atoms: _290  and  _291
REMARK  127  A    between atoms: _291  and  _292
REMARK  128  A    between atoms: _292  and  _293
REMARK                            x       y       z     vdW  Elec       q    Type
REMARK                         _______ _______ _______ _____ _____    ______ ____
ROOT
ATOM      1  O   HOH     1      29.945  20.451  36.450  0.00  0.00    +0.000 OA
ENDROOT
TORSDOF 0
REMARK  Name = ../refined-set-2016/4g0y/4g0y_pocket.pdb
REMARK  128 active torsions:
REMARK  status: ('A' for Active; 'I' for Inactive)
REMARK    1  A    between atoms: _1  and  _3
REMARK    2  A    between atoms: _3  and  _4
REMARK    3  A    between atoms: _3  and  _6
REMARK    4  A    between atoms: _6  and  _7
REMARK    5  A    between atoms: _10  and  _12
REMARK    6  A    between atoms: _12  and  _13
REMARK    7  A    between atoms: _12  and  _15
REMARK    8  A    between atoms: _15  and  _16
REMARK    9  A    between atoms: _19  and  _21
REMARK   10  A    between atoms: _21  and  _22
REMARK   11  A    between atoms: _21  and  _24
REMARK   12  A    between atoms: _27  and  _29
REMARK   13  A    between atoms: _29  and  _30
REMARK   14  A    between atoms: _29  and  _32
REMARK   15  A    between atoms: _32  and  _33
REMARK   16  A    between atoms: _37  and  _38
REMARK   17  A    between atoms: _43  and  _45
REMARK   18  A    between atoms: _45  and  _46
REMARK   19  A    between atoms: _45  and  _48
REMARK   20  A    between atoms: _48  and  _49
REMARK   21  A    between atoms: _52  and  _54
REMARK   22  A    between atoms: _54  and  _55
REMARK   23  A    between atoms: _54  and  _57
REMARK   24  A    between atoms: _57  and  _58
REMARK   25  A    between atoms: _63  and  _65
REMARK   26  A    between atoms: _65  and  _66
REMARK   27  A    between atoms: _65  and  _68
REMARK   28  A    between atoms: _68  and  _69
REMARK   29  A    between atoms: _74  and  _76
REMARK   30  A    between atoms: _76  and  _77
REMARK   31  A    between atoms: _79  and  _81
REMARK   32  A    between atoms: _81  and  _82
REMARK   33  A    between atoms: _81  and  _84
REMARK   34  A    between atoms: _84  and  _85
REMARK   35  A    between atoms: _87  and  _89
REMARK   36  A    between atoms: _89  and  _90
REMARK   37  A    between atoms: _89  and  _92
REMARK   38  A    between atoms: _92  and  _93
REMARK   39  A    between atoms: _96  and  _98
REMARK   40  A    between atoms: _98  and  _99
REMARK   41  A    between atoms: _98  and  _101
REMARK   42  A    between atoms: _101  and  _102
REMARK   43  A    between atoms: _107  and  _108
REMARK   44  A    between atoms: _110  and  _112
REMARK   45  A    between atoms: _112  and  _113
REMARK   46  A    between atoms: _115  and  _117
REMARK   47  A    between atoms: _117  and  _118
REMARK   48  A    between atoms: _117  and  _120
REMARK   49  A    between atoms: _120  and  _121
REMARK   50  A    between atoms: _124  and  _126
REMARK   51  A    between atoms: _126  and  _127
REMARK   52  A    between atoms: _126  and  _129
REMARK   53  A    between atoms: _129  and  _130
REMARK   54  A    between atoms: _133  and  _135
REMARK   55  A    between atoms: _135  and  _136
REMARK   56  A    between atoms: _135  and  _138
REMARK   57  A    between atoms: _138  and  _139
REMARK   58  A    between atoms: _139  and  _140
REMARK   59  A    between atoms: _140  and  _141
REMARK   60  A    between atoms: _141  and  _142
REMARK   61  A    between atoms: _146  and  _148
REMARK   62  A    between atoms: _148  and  _149
REMARK   63  A    between atoms: _148  and  _151
REMARK   64  A    between atoms: _151  and  _152
REMARK   65  A    between atoms: _152  and  _153
REMARK   66  A    between atoms: _156  and  _158
REMARK   67  A    between atoms: _158  and  _159
REMARK   68  A    between atoms: _158  and  _161
REMARK   69  A    between atoms: _164  and  _166
REMARK   70  A    between atoms: _166  and  _167
REMARK   71  A    between atoms: _166  and  _169
REMARK   72  A    between atoms: _169  and  _170
REMARK   73  A    between atoms: _172  and  _174
REMARK   74  A    between atoms: _174  and  _175
REMARK   75  A    between atoms: _174  and  _177
REMARK   76  A    between atoms: _177  and  _178
REMARK   77  A    between atoms: _178  and  _179
REMARK   78  A    between atoms: _184  and  _186
REMARK   79  A    between atoms: _186  and  _187
REMARK   80  A    between atoms: _186  and  _189
REMARK   81  A    between atoms: _191  and  _193
REMARK   82  A    between atoms: _193  and  _194
REMARK   83  A    between atoms: _193  and  _196
REMARK   84  A    between atoms: _198  and  _200
REMARK   85  A    between atoms: _200  and  _201
REMARK   86  A    between atoms: _200  and  _203
REMARK   87  A    between atoms: _203  and  _204
REMARK   88  A    between atoms: _207  and  _209
REMARK   89  A    between atoms: _209  and  _210
REMARK   90  A    between atoms: _209  and  _212
REMARK   91  A    between atoms: _212  and  _213
REMARK   92  A    between atoms: _216  and  _218
REMARK   93  A    between atoms: _218  and  _219
REMARK   94  A    between atoms: _218  and  _221
REMARK   95  A    between atoms: _221  and  _222
REMARK   96  A    between atoms: _222  and  _223
REMARK   97  A    between atoms: _223  and  _224
REMARK   98  A    between atoms: _224  and  _225
REMARK   99  A    between atoms: _229  and  _231
REMARK  100  A    between atoms: _231  and  _232
REMARK  101  A    between atoms: _231  and  _234
REMARK  102  A    between atoms: _234  and  _235
REMARK  103  A    between atoms: _240  and  _242
REMARK  104  A    between atoms: _242  and  _243
REMARK  105  A    between atoms: _242  and  _245
REMARK  106  A    between atoms: _245  and  _246
REMARK  107  A    between atoms: _251  and  _252
REMARK  108  A    between atoms: _254  and  _256
REMARK  109  A    between atoms: _256  and  _257
REMARK  110  A    between atoms: _256  and  _259
REMARK  111  A    between atoms: _262  and  _264
REMARK  112  A    between atoms: _264  and  _265
REMARK  113  A    between atoms: _264  and  _267
REMARK  114  A    between atoms: _267  and  _268
REMARK  115  A    between atoms: _268  and  _269
REMARK  116  A    between atoms: _269  and  _270
REMARK  117  A    between atoms: _270  and  _271
REMARK  118  A    between atoms: _275  and  _277
REMARK  119  A    between atoms: _277  and  _278
REMARK  120  A    between atoms: _277  and  _280
REMARK  121  A    between atoms: _280  and  _281
REMARK  122  A    between atoms: _284  and  _286
REMARK  123  A    between atoms: _286  and  _287
REMARK  124  A    between atoms: _286  and  _289
REMARK  125  A    between atoms: _289  and  _290
REMARK  126  A    between atoms: _290  and  _291
REMARK  127  A    between atoms: _291  and  _292
REMARK  128  A    between atoms: _292  and  _293
REMARK                            x       y       z     vdW  Elec       q    Type
REMARK                         _______ _______ _______ _____ _____    ______ ____
ROOT
ATOM      1  O   HOH     1      29.354  35.549  41.995  0.00  0.00    +0.000 OA
ENDROOT
TORSDOF 0
REMARK  Name = ../refined-set-2016/4g0y/4g0y_pocket.pdb
REMARK  128 active torsions:
REMARK  status: ('A' for Active; 'I' for Inactive)
REMARK    1  A    between atoms: _1  and  _3
REMARK    2  A    between atoms: _3  and  _4
REMARK    3  A    between atoms: _3  and  _6
REMARK    4  A    between atoms: _6  and  _7
REMARK    5  A    between atoms: _10  and  _12
REMARK    6  A    between atoms: _12  and  _13
REMARK    7  A    between atoms: _12  and  _15
REMARK    8  A    between atoms: _15  and  _16
REMARK    9  A    between atoms: _19  and  _21
REMARK   10  A    between atoms: _21  and  _22
REMARK   11  A    between atoms: _21  and  _24
REMARK   12  A    between atoms: _27  and  _29
REMARK   13  A    between atoms: _29  and  _30
REMARK   14  A    between atoms: _29  and  _32
REMARK   15  A    between atoms: _32  and  _33
REMARK   16  A    between atoms: _37  and  _38
REMARK   17  A    between atoms: _43  and  _45
REMARK   18  A    between atoms: _45  and  _46
REMARK   19  A    between atoms: _45  and  _48
REMARK   20  A    between atoms: _48  and  _49
REMARK   21  A    between atoms: _52  and  _54
REMARK   22  A    between atoms: _54  and  _55
REMARK   23  A    between atoms: _54  and  _57
REMARK   24  A    between atoms: _57  and  _58
REMARK   25  A    between atoms: _63  and  _65
REMARK   26  A    between atoms: _65  and  _66
REMARK   27  A    between atoms: _65  and  _68
REMARK   28  A    between atoms: _68  and  _69
REMARK   29  A    between atoms: _74  and  _76
REMARK   30  A    between atoms: _76  and  _77
REMARK   31  A    between atoms: _79  and  _81
REMARK   32  A    between atoms: _81  and  _82
REMARK   33  A    between atoms: _81  and  _84
REMARK   34  A    between atoms: _84  and  _85
REMARK   35  A    between atoms: _87  and  _89
REMARK   36  A    between atoms: _89  and  _90
REMARK   37  A    between atoms: _89  and  _92
REMARK   38  A    between atoms: _92  and  _93
REMARK   39  A    between atoms: _96  and  _98
REMARK   40  A    between atoms: _98  and  _99
REMARK   41  A    between atoms: _98  and  _101
REMARK   42  A    between atoms: _101  and  _102
REMARK   43  A    between atoms: _107  and  _108
REMARK   44  A    between atoms: _110  and  _112
REMARK   45  A    between atoms: _112  and  _113
REMARK   46  A    between atoms: _115  and  _117
REMARK   47  A    between atoms: _117  and  _118
REMARK   48  A    between atoms: _117  and  _120
REMARK   49  A    between atoms: _120  and  _121
REMARK   50  A    between atoms: _124  and  _126
REMARK   51  A    between atoms: _126  and  _127
REMARK   52  A    between atoms: _126  and  _129
REMARK   53  A    between atoms: _129  and  _130
REMARK   54  A    between atoms: _133  and  _135
REMARK   55  A    between atoms: _135  and  _136
REMARK   56  A    between atoms: _135  and  _138
REMARK   57  A    between atoms: _138  and  _139
REMARK   58  A    between atoms: _139  and  _140
REMARK   59  A    between atoms: _140  and  _141
REMARK   60  A    between atoms: _141  and  _142
REMARK   61  A    between atoms: _146  and  _148
REMARK   62  A    between atoms: _148  and  _149
REMARK   63  A    between atoms: _148  and  _151
REMARK   64  A    between atoms: _151  and  _152
REMARK   65  A    between atoms: _152  and  _153
REMARK   66  A    between atoms: _156  and  _158
REMARK   67  A    between atoms: _158  and  _159
REMARK   68  A    between atoms: _158  and  _161
REMARK   69  A    between atoms: _164  and  _166
REMARK   70  A    between atoms: _166  and  _167
REMARK   71  A    between atoms: _166  and  _169
REMARK   72  A    between atoms: _169  and  _170
REMARK   73  A    between atoms: _172  and  _174
REMARK   74  A    between atoms: _174  and  _175
REMARK   75  A    between atoms: _174  and  _177
REMARK   76  A    between atoms: _177  and  _178
REMARK   77  A    between atoms: _178  and  _179
REMARK   78  A    between atoms: _184  and  _186
REMARK   79  A    between atoms: _186  and  _187
REMARK   80  A    between atoms: _186  and  _189
REMARK   81  A    between atoms: _191  and  _193
REMARK   82  A    between atoms: _193  and  _194
REMARK   83  A    between atoms: _193  and  _196
REMARK   84  A    between atoms: _198  and  _200
REMARK   85  A    between atoms: _200  and  _201
REMARK   86  A    between atoms: _200  and  _203
REMARK   87  A    between atoms: _203  and  _204
REMARK   88  A    between atoms: _207  and  _209
REMARK   89  A    between atoms: _209  and  _210
REMARK   90  A    between atoms: _209  and  _212
REMARK   91  A    between atoms: _212  and  _213
REMARK   92  A    between atoms: _216  and  _218
REMARK   93  A    between atoms: _218  and  _219
REMARK   94  A    between atoms: _218  and  _221
REMARK   95  A    between atoms: _221  and  _222
REMARK   96  A    between atoms: _222  and  _223
REMARK   97  A    between atoms: _223  and  _224
REMARK   98  A    between atoms: _224  and  _225
REMARK   99  A    between atoms: _229  and  _231
REMARK  100  A    between atoms: _231  and  _232
REMARK  101  A    between atoms: _231  and  _234
REMARK  102  A    between atoms: _234  and  _235
REMARK  103  A    between atoms: _240  and  _242
REMARK  104  A    between atoms: _242  and  _243
REMARK  105  A    between atoms: _242  and  _245
REMARK  106  A    between atoms: _245  and  _246
REMARK  107  A    between atoms: _251  and  _252
REMARK  108  A    between atoms: _254  and  _256
REMARK  109  A    between atoms: _256  and  _257
REMARK  110  A    between atoms: _256  and  _259
REMARK  111  A    between atoms: _262  and  _264
REMARK  112  A    between atoms: _264  and  _265
REMARK  113  A    between atoms: _264  and  _267
REMARK  114  A    between atoms: _267  and  _268
REMARK  115  A    between atoms: _268  and  _269
REMARK  116  A    between atoms: _269  and  _270
REMARK  117  A    between atoms: _270  and  _271
REMARK  118  A    between atoms: _275  and  _277
REMARK  119  A    between atoms: _277  and  _278
REMARK  120  A    between atoms: _277  and  _280
REMARK  121  A    between atoms: _280  and  _281
REMARK  122  A    between atoms: _284  and  _286
REMARK  123  A    between atoms: _286  and  _287
REMARK  124  A    between atoms: _286  and  _289
REMARK  125  A    between atoms: _289  and  _290
REMARK  126  A    between atoms: _290  and  _291
REMARK  127  A    between atoms: _291  and  _292
REMARK  128  A    between atoms: _292  and  _293
REMARK                            x       y       z     vdW  Elec       q    Type
REMARK                         _______ _______ _______ _____ _____    ______ ____
ROOT
ATOM      1  O   HOH     1      25.091  41.077  35.175  0.00  0.00    +0.000 OA
ENDROOT
TORSDOF 0
REMARK  Name = ../refined-set-2016/4g0y/4g0y_pocket.pdb
REMARK  128 active torsions:
REMARK  status: ('A' for Active; 'I' for Inactive)
REMARK    1  A    between atoms: _1  and  _3
REMARK    2  A    between atoms: _3  and  _4
REMARK    3  A    between atoms: _3  and  _6
REMARK    4  A    between atoms: _6  and  _7
REMARK    5  A    between atoms: _10  and  _12
REMARK    6  A    between atoms: _12  and  _13
REMARK    7  A    between atoms: _12  and  _15
REMARK    8  A    between atoms: _15  and  _16
REMARK    9  A    between atoms: _19  and  _21
REMARK   10  A    between atoms: _21  and  _22
REMARK   11  A    between atoms: _21  and  _24
REMARK   12  A    between atoms: _27  and  _29
REMARK   13  A    between atoms: _29  and  _30
REMARK   14  A    between atoms: _29  and  _32
REMARK   15  A    between atoms: _32  and  _33
REMARK   16  A    between atoms: _37  and  _38
REMARK   17  A    between atoms: _43  and  _45
REMARK   18  A    between atoms: _45  and  _46
REMARK   19  A    between atoms: _45  and  _48
REMARK   20  A    between atoms: _48  and  _49
REMARK   21  A    between atoms: _52  and  _54
REMARK   22  A    between atoms: _54  and  _55
REMARK   23  A    between atoms: _54  and  _57
REMARK   24  A    between atoms: _57  and  _58
REMARK   25  A    between atoms: _63  and  _65
REMARK   26  A    between atoms: _65  and  _66
REMARK   27  A    between atoms: _65  and  _68
REMARK   28  A    between atoms: _68  and  _69
REMARK   29  A    between atoms: _74  and  _76
REMARK   30  A    between atoms: _76  and  _77
REMARK   31  A    between atoms: _79  and  _81
REMARK   32  A    between atoms: _81  and  _82
REMARK   33  A    between atoms: _81  and  _84
REMARK   34  A    between atoms: _84  and  _85
REMARK   35  A    between atoms: _87  and  _89
REMARK   36  A    between atoms: _89  and  _90
REMARK   37  A    between atoms: _89  and  _92
REMARK   38  A    between atoms: _92  and  _93
REMARK   39  A    between atoms: _96  and  _98
REMARK   40  A    between atoms: _98  and  _99
REMARK   41  A    between atoms: _98  and  _101
REMARK   42  A    between atoms: _101  and  _102
REMARK   43  A    between atoms: _107  and  _108
REMARK   44  A    between atoms: _110  and  _112
REMARK   45  A    between atoms: _112  and  _113
REMARK   46  A    between atoms: _115  and  _117
REMARK   47  A    between atoms: _117  and  _118
REMARK   48  A    between atoms: _117  and  _120
REMARK   49  A    between atoms: _120  and  _121
REMARK   50  A    between atoms: _124  and  _126
REMARK   51  A    between atoms: _126  and  _127
REMARK   52  A    between atoms: _126  and  _129
REMARK   53  A    between atoms: _129  and  _130
REMARK   54  A    between atoms: _133  and  _135
REMARK   55  A    between atoms: _135  and  _136
REMARK   56  A    between atoms: _135  and  _138
REMARK   57  A    between atoms: _138  and  _139
REMARK   58  A    between atoms: _139  and  _140
REMARK   59  A    between atoms: _140  and  _141
REMARK   60  A    between atoms: _141  and  _142
REMARK   61  A    between atoms: _146  and  _148
REMARK   62  A    between atoms: _148  and  _149
REMARK   63  A    between atoms: _148  and  _151
REMARK   64  A    between atoms: _151  and  _152
REMARK   65  A    between atoms: _152  and  _153
REMARK   66  A    between atoms: _156  and  _158
REMARK   67  A    between atoms: _158  and  _159
REMARK   68  A    between atoms: _158  and  _161
REMARK   69  A    between atoms: _164  and  _166
REMARK   70  A    between atoms: _166  and  _167
REMARK   71  A    between atoms: _166  and  _169
REMARK   72  A    between atoms: _169  and  _170
REMARK   73  A    between atoms: _172  and  _174
REMARK   74  A    between atoms: _174  and  _175
REMARK   75  A    between atoms: _174  and  _177
REMARK   76  A    between atoms: _177  and  _178
REMARK   77  A    between atoms: _178  and  _179
REMARK   78  A    between atoms: _184  and  _186
REMARK   79  A    between atoms: _186  and  _187
REMARK   80  A    between atoms: _186  and  _189
REMARK   81  A    between atoms: _191  and  _193
REMARK   82  A    between atoms: _193  and  _194
REMARK   83  A    between atoms: _193  and  _196
REMARK   84  A    between atoms: _198  and  _200
REMARK   85  A    between atoms: _200  and  _201
REMARK   86  A    between atoms: _200  and  _203
REMARK   87  A    between atoms: _203  and  _204
REMARK   88  A    between atoms: _207  and  _209
REMARK   89  A    between atoms: _209  and  _210
REMARK   90  A    between atoms: _209  and  _212
REMARK   91  A    between atoms: _212  and  _213
REMARK   92  A    between atoms: _216  and  _218
REMARK   93  A    between atoms: _218  and  _219
REMARK   94  A    between atoms: _218  and  _221
REMARK   95  A    between atoms: _221  and  _222
REMARK   96  A    between atoms: _222  and  _223
REMARK   97  A    between atoms: _223  and  _224
REMARK   98  A    between atoms: _224  and  _225
REMARK   99  A    between atoms: _229  and  _231
REMARK  100  A    between atoms: _231  and  _232
REMARK  101  A    between atoms: _231  and  _234
REMARK  102  A    between atoms: _234  and  _235
REMARK  103  A    between atoms: _240  and  _242
REMARK  104  A    between atoms: _242  and  _243
REMARK  105  A    between atoms: _242  and  _245
REMARK  106  A    between atoms: _245  and  _246
REMARK  107  A    between atoms: _251  and  _252
REMARK  108  A    between atoms: _254  and  _256
REMARK  109  A    between atoms: _256  and  _257
REMARK  110  A    between atoms: _256  and  _259
REMARK  111  A    between atoms: _262  and  _264
REMARK  112  A    between atoms: _264  and  _265
REMARK  113  A    between atoms: _264  and  _267
REMARK  114  A    between atoms: _267  and  _268
REMARK  115  A    between atoms: _268  and  _269
REMARK  116  A    between atoms: _269  and  _270
REMARK  117  A    between atoms: _270  and  _271
REMARK  118  A    between atoms: _275  and  _277
REMARK  119  A    between atoms: _277  and  _278
REMARK  120  A    between atoms: _277  and  _280
REMARK  121  A    between atoms: _280  and  _281
REMARK  122  A    between atoms: _284  and  _286
REMARK  123  A    between atoms: _286  and  _287
REMARK  124  A    between atoms: _286  and  _289
REMARK  125  A    between atoms: _289  and  _290
REMARK  126  A    between atoms: _290  and  _291
REMARK  127  A    between atoms: _291  and  _292
REMARK  128  A    between atoms: _292  and  _293
REMARK                            x       y       z     vdW  Elec       q    Type
REMARK                         _______ _______ _______ _____ _____    ______ ____
ROOT
ATOM      1  O   HOH     1      30.717  41.213  37.401  0.00  0.00    +0.000 OA
ENDROOT
TORSDOF 0
REMARK  Name = ../refined-set-2016/4g0y/4g0y_pocket.pdb
REMARK  128 active torsions:
REMARK  status: ('A' for Active; 'I' for Inactive)
REMARK    1  A    between atoms: _1  and  _3
REMARK    2  A    between atoms: _3  and  _4
REMARK    3  A    between atoms: _3  and  _6
REMARK    4  A    between atoms: _6  and  _7
REMARK    5  A    between atoms: _10  and  _12
REMARK    6  A    between atoms: _12  and  _13
REMARK    7  A    between atoms: _12  and  _15
REMARK    8  A    between atoms: _15  and  _16
REMARK    9  A    between atoms: _19  and  _21
REMARK   10  A    between atoms: _21  and  _22
REMARK   11  A    between atoms: _21  and  _24
REMARK   12  A    between atoms: _27  and  _29
REMARK   13  A    between atoms: _29  and  _30
REMARK   14  A    between atoms: _29  and  _32
REMARK   15  A    between atoms: _32  and  _33
REMARK   16  A    between atoms: _37  and  _38
REMARK   17  A    between atoms: _43  and  _45
REMARK   18  A    between atoms: _45  and  _46
REMARK   19  A    between atoms: _45  and  _48
REMARK   20  A    between atoms: _48  and  _49
REMARK   21  A    between atoms: _52  and  _54
REMARK   22  A    between atoms: _54  and  _55
REMARK   23  A    between atoms: _54  and  _57
REMARK   24  A    between atoms: _57  and  _58
REMARK   25  A    between atoms: _63  and  _65
REMARK   26  A    between atoms: _65  and  _66
REMARK   27  A    between atoms: _65  and  _68
REMARK   28  A    between atoms: _68  and  _69
REMARK   29  A    between atoms: _74  and  _76
REMARK   30  A    between atoms: _76  and  _77
REMARK   31  A    between atoms: _79  and  _81
REMARK   32  A    between atoms: _81  and  _82
REMARK   33  A    between atoms: _81  and  _84
REMARK   34  A    between atoms: _84  and  _85
REMARK   35  A    between atoms: _87  and  _89
REMARK   36  A    between atoms: _89  and  _90
REMARK   37  A    between atoms: _89  and  _92
REMARK   38  A    between atoms: _92  and  _93
REMARK   39  A    between atoms: _96  and  _98
REMARK   40  A    between atoms: _98  and  _99
REMARK   41  A    between atoms: _98  and  _101
REMARK   42  A    between atoms: _101  and  _102
REMARK   43  A    between atoms: _107  and  _108
REMARK   44  A    between atoms: _110  and  _112
REMARK   45  A    between atoms: _112  and  _113
REMARK   46  A    between atoms: _115  and  _117
REMARK   47  A    between atoms: _117  and  _118
REMARK   48  A    between atoms: _117  and  _120
REMARK   49  A    between atoms: _120  and  _121
REMARK   50  A    between atoms: _124  and  _126
REMARK   51  A    between atoms: _126  and  _127
REMARK   52  A    between atoms: _126  and  _129
REMARK   53  A    between atoms: _129  and  _130
REMARK   54  A    between atoms: _133  and  _135
REMARK   55  A    between atoms: _135  and  _136
REMARK   56  A    between atoms: _135  and  _138
REMARK   57  A    between atoms: _138  and  _139
REMARK   58  A    between atoms: _139  and  _140
REMARK   59  A    between atoms: _140  and  _141
REMARK   60  A    between atoms: _141  and  _142
REMARK   61  A    between atoms: _146  and  _148
REMARK   62  A    between atoms: _148  and  _149
REMARK   63  A    between atoms: _148  and  _151
REMARK   64  A    between atoms: _151  and  _152
REMARK   65  A    between atoms: _152  and  _153
REMARK   66  A    between atoms: _156  and  _158
REMARK   67  A    between atoms: _158  and  _159
REMARK   68  A    between atoms: _158  and  _161
REMARK   69  A    between atoms: _164  and  _166
REMARK   70  A    between atoms: _166  and  _167
REMARK   71  A    between atoms: _166  and  _169
REMARK   72  A    between atoms: _169  and  _170
REMARK   73  A    between atoms: _172  and  _174
REMARK   74  A    between atoms: _174  and  _175
REMARK   75  A    between atoms: _174  and  _177
REMARK   76  A    between atoms: _177  and  _178
REMARK   77  A    between atoms: _178  and  _179
REMARK   78  A    between atoms: _184  and  _186
REMARK   79  A    between atoms: _186  and  _187
REMARK   80  A    between atoms: _186  and  _189
REMARK   81  A    between atoms: _191  and  _193
REMARK   82  A    between atoms: _193  and  _194
REMARK   83  A    between atoms: _193  and  _196
REMARK   84  A    between atoms: _198  and  _200
REMARK   85  A    between atoms: _200  and  _201
REMARK   86  A    between atoms: _200  and  _203
REMARK   87  A    between atoms: _203  and  _204
REMARK   88  A    between atoms: _207  and  _209
REMARK   89  A    between atoms: _209  and  _210
REMARK   90  A    between atoms: _209  and  _212
REMARK   91  A    between atoms: _212  and  _213
REMARK   92  A    between atoms: _216  and  _218
REMARK   93  A    between atoms: _218  and  _219
REMARK   94  A    between atoms: _218  and  _221
REMARK   95  A    between atoms: _221  and  _222
REMARK   96  A    between atoms: _222  and  _223
REMARK   97  A    between atoms: _223  and  _224
REMARK   98  A    between atoms: _224  and  _225
REMARK   99  A    between atoms: _229  and  _231
REMARK  100  A    between atoms: _231  and  _232
REMARK  101  A    between atoms: _231  and  _234
REMARK  102  A    between atoms: _234  and  _235
REMARK  103  A    between atoms: _240  and  _242
REMARK  104  A    between atoms: _242  and  _243
REMARK  105  A    between atoms: _242  and  _245
REMARK  106  A    between atoms: _245  and  _246
REMARK  107  A    between atoms: _251  and  _252
REMARK  108  A    between atoms: _254  and  _256
REMARK  109  A    between atoms: _256  and  _257
REMARK  110  A    between atoms: _256  and  _259
REMARK  111  A    between atoms: _262  and  _264
REMARK  112  A    between atoms: _264  and  _265
REMARK  113  A    between atoms: _264  and  _267
REMARK  114  A    between atoms: _267  and  _268
REMARK  115  A    between atoms: _268  and  _269
REMARK  116  A    between atoms: _269  and  _270
REMARK  117  A    between atoms: _270  and  _271
REMARK  118  A    between atoms: _275  and  _277
REMARK  119  A    between atoms: _277  and  _278
REMARK  120  A    between atoms: _277  and  _280
REMARK  121  A    between atoms: _280  and  _281
REMARK  122  A    between atoms: _284  and  _286
REMARK  123  A    between atoms: _286  and  _287
REMARK  124  A    between atoms: _286  and  _289
REMARK  125  A    between atoms: _289  and  _290
REMARK  126  A    between atoms: _290  and  _291
REMARK  127  A    between atoms: _291  and  _292
REMARK  128  A    between atoms: _292  and  _293
REMARK                            x       y       z     vdW  Elec       q    Type
REMARK                         _______ _______ _______ _____ _____    ______ ____
ROOT
ATOM      1  O   HOH     1      29.197  31.801  43.588  0.00  0.00    +0.000 OA
ENDROOT
TORSDOF 0
REMARK  Name = ../refined-set-2016/4g0y/4g0y_pocket.pdb
REMARK  128 active torsions:
REMARK  status: ('A' for Active; 'I' for Inactive)
REMARK    1  A    between atoms: _1  and  _3
REMARK    2  A    between atoms: _3  and  _4
REMARK    3  A    between atoms: _3  and  _6
REMARK    4  A    between atoms: _6  and  _7
REMARK    5  A    between atoms: _10  and  _12
REMARK    6  A    between atoms: _12  and  _13
REMARK    7  A    between atoms: _12  and  _15
REMARK    8  A    between atoms: _15  and  _16
REMARK    9  A    between atoms: _19  and  _21
REMARK   10  A    between atoms: _21  and  _22
REMARK   11  A    between atoms: _21  and  _24
REMARK   12  A    between atoms: _27  and  _29
REMARK   13  A    between atoms: _29  and  _30
REMARK   14  A    between atoms: _29  and  _32
REMARK   15  A    between atoms: _32  and  _33
REMARK   16  A    between atoms: _37  and  _38
REMARK   17  A    between atoms: _43  and  _45
REMARK   18  A    between atoms: _45  and  _46
REMARK   19  A    between atoms: _45  and  _48
REMARK   20  A    between atoms: _48  and  _49
REMARK   21  A    between atoms: _52  and  _54
REMARK   22  A    between atoms: _54  and  _55
REMARK   23  A    between atoms: _54  and  _57
REMARK   24  A    between atoms: _57  and  _58
REMARK   25  A    between atoms: _63  and  _65
REMARK   26  A    between atoms: _65  and  _66
REMARK   27  A    between atoms: _65  and  _68
REMARK   28  A    between atoms: _68  and  _69
REMARK   29  A    between atoms: _74  and  _76
REMARK   30  A    between atoms: _76  and  _77
REMARK   31  A    between atoms: _79  and  _81
REMARK   32  A    between atoms: _81  and  _82
REMARK   33  A    between atoms: _81  and  _84
REMARK   34  A    between atoms: _84  and  _85
REMARK   35  A    between atoms: _87  and  _89
REMARK   36  A    between atoms: _89  and  _90
REMARK   37  A    between atoms: _89  and  _92
REMARK   38  A    between atoms: _92  and  _93
REMARK   39  A    between atoms: _96  and  _98
REMARK   40  A    between atoms: _98  and  _99
REMARK   41  A    between atoms: _98  and  _101
REMARK   42  A    between atoms: _101  and  _102
REMARK   43  A    between atoms: _107  and  _108
REMARK   44  A    between atoms: _110  and  _112
REMARK   45  A    between atoms: _112  and  _113
REMARK   46  A    between atoms: _115  and  _117
REMARK   47  A    between atoms: _117  and  _118
REMARK   48  A    between atoms: _117  and  _120
REMARK   49  A    between atoms: _120  and  _121
REMARK   50  A    between atoms: _124  and  _126
REMARK   51  A    between atoms: _126  and  _127
REMARK   52  A    between atoms: _126  and  _129
REMARK   53  A    between atoms: _129  and  _130
REMARK   54  A    between atoms: _133  and  _135
REMARK   55  A    between atoms: _135  and  _136
REMARK   56  A    between atoms: _135  and  _138
REMARK   57  A    between atoms: _138  and  _139
REMARK   58  A    between atoms: _139  and  _140
REMARK   59  A    between atoms: _140  and  _141
REMARK   60  A    between atoms: _141  and  _142
REMARK   61  A    between atoms: _146  and  _148
REMARK   62  A    between atoms: _148  and  _149
REMARK   63  A    between atoms: _148  and  _151
REMARK   64  A    between atoms: _151  and  _152
REMARK   65  A    between atoms: _152  and  _153
REMARK   66  A    between atoms: _156  and  _158
REMARK   67  A    between atoms: _158  and  _159
REMARK   68  A    between atoms: _158  and  _161
REMARK   69  A    between atoms: _164  and  _166
REMARK   70  A    between atoms: _166  and  _167
REMARK   71  A    between atoms: _166  and  _169
REMARK   72  A    between atoms: _169  and  _170
REMARK   73  A    between atoms: _172  and  _174
REMARK   74  A    between atoms: _174  and  _175
REMARK   75  A    between atoms: _174  and  _177
REMARK   76  A    between atoms: _177  and  _178
REMARK   77  A    between atoms: _178  and  _179
REMARK   78  A    between atoms: _184  and  _186
REMARK   79  A    between atoms: _186  and  _187
REMARK   80  A    between atoms: _186  and  _189
REMARK   81  A    between atoms: _191  and  _193
REMARK   82  A    between atoms: _193  and  _194
REMARK   83  A    between atoms: _193  and  _196
REMARK   84  A    between atoms: _198  and  _200
REMARK   85  A    between atoms: _200  and  _201
REMARK   86  A    between atoms: _200  and  _203
REMARK   87  A    between atoms: _203  and  _204
REMARK   88  A    between atoms: _207  and  _209
REMARK   89  A    between atoms: _209  and  _210
REMARK   90  A    between atoms: _209  and  _212
REMARK   91  A    between atoms: _212  and  _213
REMARK   92  A    between atoms: _216  and  _218
REMARK   93  A    between atoms: _218  and  _219
REMARK   94  A    between atoms: _218  and  _221
REMARK   95  A    between atoms: _221  and  _222
REMARK   96  A    between atoms: _222  and  _223
REMARK   97  A    between atoms: _223  and  _224
REMARK   98  A    between atoms: _224  and  _225
REMARK   99  A    between atoms: _229  and  _231
REMARK  100  A    between atoms: _231  and  _232
REMARK  101  A    between atoms: _231  and  _234
REMARK  102  A    between atoms: _234  and  _235
REMARK  103  A    between atoms: _240  and  _242
REMARK  104  A    between atoms: _242  and  _243
REMARK  105  A    between atoms: _242  and  _245
REMARK  106  A    between atoms: _245  and  _246
REMARK  107  A    between atoms: _251  and  _252
REMARK  108  A    between atoms: _254  and  _256
REMARK  109  A    between atoms: _256  and  _257
REMARK  110  A    between atoms: _256  and  _259
REMARK  111  A    between atoms: _262  and  _264
REMARK  112  A    between atoms: _264  and  _265
REMARK  113  A    between atoms: _264  and  _267
REMARK  114  A    between atoms: _267  and  _268
REMARK  115  A    between atoms: _268  and  _269
REMARK  116  A    between atoms: _269  and  _270
REMARK  117  A    between atoms: _270  and  _271
REMARK  118  A    between atoms: _275  and  _277
REMARK  119  A    between atoms: _277  and  _278
REMARK  120  A    between atoms: _277  and  _280
REMARK  121  A    between atoms: _280  and  _281
REMARK  122  A    between atoms: _284  and  _286
REMARK  123  A    between atoms: _286  and  _287
REMARK  124  A    between atoms: _286  and  _289
REMARK  125  A    between atoms: _289  and  _290
REMARK  126  A    between atoms: _290  and  _291
REMARK  127  A    between atoms: _291  and  _292
REMARK  128  A    between atoms: _292  and  _293
REMARK                            x       y       z     vdW  Elec       q    Type
REMARK                         _______ _______ _______ _____ _____    ______ ____
ROOT
ATOM      1  O   HOH     1      33.290  31.273  42.000  0.00  0.00    +0.000 OA
ENDROOT
TORSDOF 0
REMARK  Name = ../refined-set-2016/4g0y/4g0y_pocket.pdb
REMARK  128 active torsions:
REMARK  status: ('A' for Active; 'I' for Inactive)
REMARK    1  A    between atoms: _1  and  _3
REMARK    2  A    between atoms: _3  and  _4
REMARK    3  A    between atoms: _3  and  _6
REMARK    4  A    between atoms: _6  and  _7
REMARK    5  A    between atoms: _10  and  _12
REMARK    6  A    between atoms: _12  and  _13
REMARK    7  A    between atoms: _12  and  _15
REMARK    8  A    between atoms: _15  and  _16
REMARK    9  A    between atoms: _19  and  _21
REMARK   10  A    between atoms: _21  and  _22
REMARK   11  A    between atoms: _21  and  _24
REMARK   12  A    between atoms: _27  and  _29
REMARK   13  A    between atoms: _29  and  _30
REMARK   14  A    between atoms: _29  and  _32
REMARK   15  A    between atoms: _32  and  _33
REMARK   16  A    between atoms: _37  and  _38
REMARK   17  A    between atoms: _43  and  _45
REMARK   18  A    between atoms: _45  and  _46
REMARK   19  A    between atoms: _45  and  _48
REMARK   20  A    between atoms: _48  and  _49
REMARK   21  A    between atoms: _52  and  _54
REMARK   22  A    between atoms: _54  and  _55
REMARK   23  A    between atoms: _54  and  _57
REMARK   24  A    between atoms: _57  and  _58
REMARK   25  A    between atoms: _63  and  _65
REMARK   26  A    between atoms: _65  and  _66
REMARK   27  A    between atoms: _65  and  _68
REMARK   28  A    between atoms: _68  and  _69
REMARK   29  A    between atoms: _74  and  _76
REMARK   30  A    between atoms: _76  and  _77
REMARK   31  A    between atoms: _79  and  _81
REMARK   32  A    between atoms: _81  and  _82
REMARK   33  A    between atoms: _81  and  _84
REMARK   34  A    between atoms: _84  and  _85
REMARK   35  A    between atoms: _87  and  _89
REMARK   36  A    between atoms: _89  and  _90
REMARK   37  A    between atoms: _89  and  _92
REMARK   38  A    between atoms: _92  and  _93
REMARK   39  A    between atoms: _96  and  _98
REMARK   40  A    between atoms: _98  and  _99
REMARK   41  A    between atoms: _98  and  _101
REMARK   42  A    between atoms: _101  and  _102
REMARK   43  A    between atoms: _107  and  _108
REMARK   44  A    between atoms: _110  and  _112
REMARK   45  A    between atoms: _112  and  _113
REMARK   46  A    between atoms: _115  and  _117
REMARK   47  A    between atoms: _117  and  _118
REMARK   48  A    between atoms: _117  and  _120
REMARK   49  A    between atoms: _120  and  _121
REMARK   50  A    between atoms: _124  and  _126
REMARK   51  A    between atoms: _126  and  _127
REMARK   52  A    between atoms: _126  and  _129
REMARK   53  A    between atoms: _129  and  _130
REMARK   54  A    between atoms: _133  and  _135
REMARK   55  A    between atoms: _135  and  _136
REMARK   56  A    between atoms: _135  and  _138
REMARK   57  A    between atoms: _138  and  _139
REMARK   58  A    between atoms: _139  and  _140
REMARK   59  A    between atoms: _140  and  _141
REMARK   60  A    between atoms: _141  and  _142
REMARK   61  A    between atoms: _146  and  _148
REMARK   62  A    between atoms: _148  and  _149
REMARK   63  A    between atoms: _148  and  _151
REMARK   64  A    between atoms: _151  and  _152
REMARK   65  A    between atoms: _152  and  _153
REMARK   66  A    between atoms: _156  and  _158
REMARK   67  A    between atoms: _158  and  _159
REMARK   68  A    between atoms: _158  and  _161
REMARK   69  A    between atoms: _164  and  _166
REMARK   70  A    between atoms: _166  and  _167
REMARK   71  A    between atoms: _166  and  _169
REMARK   72  A    between atoms: _169  and  _170
REMARK   73  A    between atoms: _172  and  _174
REMARK   74  A    between atoms: _174  and  _175
REMARK   75  A    between atoms: _174  and  _177
REMARK   76  A    between atoms: _177  and  _178
REMARK   77  A    between atoms: _178  and  _179
REMARK   78  A    between atoms: _184  and  _186
REMARK   79  A    between atoms: _186  and  _187
REMARK   80  A    between atoms: _186  and  _189
REMARK   81  A    between atoms: _191  and  _193
REMARK   82  A    between atoms: _193  and  _194
REMARK   83  A    between atoms: _193  and  _196
REMARK   84  A    between atoms: _198  and  _200
REMARK   85  A    between atoms: _200  and  _201
REMARK   86  A    between atoms: _200  and  _203
REMARK   87  A    between atoms: _203  and  _204
REMARK   88  A    between atoms: _207  and  _209
REMARK   89  A    between atoms: _209  and  _210
REMARK   90  A    between atoms: _209  and  _212
REMARK   91  A    between atoms: _212  and  _213
REMARK   92  A    between atoms: _216  and  _218
REMARK   93  A    between atoms: _218  and  _219
REMARK   94  A    between atoms: _218  and  _221
REMARK   95  A    between atoms: _221  and  _222
REMARK   96  A    between atoms: _222  and  _223
REMARK   97  A    between atoms: _223  and  _224
REMARK   98  A    between atoms: _224  and  _225
REMARK   99  A    between atoms: _229  and  _231
REMARK  100  A    between atoms: _231  and  _232
REMARK  101  A    between atoms: _231  and  _234
REMARK  102  A    between atoms: _234  and  _235
REMARK  103  A    between atoms: _240  and  _242
REMARK  104  A    between atoms: _242  and  _243
REMARK  105  A    between atoms: _242  and  _245
REMARK  106  A    between atoms: _245  and  _246
REMARK  107  A    between atoms: _251  and  _252
REMARK  108  A    between atoms: _254  and  _256
REMARK  109  A    between atoms: _256  and  _257
REMARK  110  A    between atoms: _256  and  _259
REMARK  111  A    between atoms: _262  and  _264
REMARK  112  A    between atoms: _264  and  _265
REMARK  113  A    between atoms: _264  and  _267
REMARK  114  A    between atoms: _267  and  _268
REMARK  115  A    between atoms: _268  and  _269
REMARK  116  A    between atoms: _269  and  _270
REMARK  117  A    between atoms: _270  and  _271
REMARK  118  A    between atoms: _275  and  _277
REMARK  119  A    between atoms: _277  and  _278
REMARK  120  A    between atoms: _277  and  _280
REMARK  121  A    between atoms: _280  and  _281
REMARK  122  A    between atoms: _284  and  _286
REMARK  123  A    between atoms: _286  and  _287
REMARK  124  A    between atoms: _286  and  _289
REMARK  125  A    between atoms: _289  and  _290
REMARK  126  A    between atoms: _290  and  _291
REMARK  127  A    between atoms: _291  and  _292
REMARK  128  A    between atoms: _292  and  _293
REMARK                            x       y       z     vdW  Elec       q    Type
REMARK                         _______ _______ _______ _____ _____    ______ ____
ROOT
ATOM      1  O   HOH     1      25.052  36.432  35.215  0.00  0.00    +0.000 OA
ENDROOT
TORSDOF 0
REMARK  Name = ../refined-set-2016/4g0y/4g0y_pocket.pdb
REMARK  128 active torsions:
REMARK  status: ('A' for Active; 'I' for Inactive)
REMARK    1  A    between atoms: _1  and  _3
REMARK    2  A    between atoms: _3  and  _4
REMARK    3  A    between atoms: _3  and  _6
REMARK    4  A    between atoms: _6  and  _7
REMARK    5  A    between atoms: _10  and  _12
REMARK    6  A    between atoms: _12  and  _13
REMARK    7  A    between atoms: _12  and  _15
REMARK    8  A    between atoms: _15  and  _16
REMARK    9  A    between atoms: _19  and  _21
REMARK   10  A    between atoms: _21  and  _22
REMARK   11  A    between atoms: _21  and  _24
REMARK   12  A    between atoms: _27  and  _29
REMARK   13  A    between atoms: _29  and  _30
REMARK   14  A    between atoms: _29  and  _32
REMARK   15  A    between atoms: _32  and  _33
REMARK   16  A    between atoms: _37  and  _38
REMARK   17  A    between atoms: _43  and  _45
REMARK   18  A    between atoms: _45  and  _46
REMARK   19  A    between atoms: _45  and  _48
REMARK   20  A    between atoms: _48  and  _49
REMARK   21  A    between atoms: _52  and  _54
REMARK   22  A    between atoms: _54  and  _55
REMARK   23  A    between atoms: _54  and  _57
REMARK   24  A    between atoms: _57  and  _58
REMARK   25  A    between atoms: _63  and  _65
REMARK   26  A    between atoms: _65  and  _66
REMARK   27  A    between atoms: _65  and  _68
REMARK   28  A    between atoms: _68  and  _69
REMARK   29  A    between atoms: _74  and  _76
REMARK   30  A    between atoms: _76  and  _77
REMARK   31  A    between atoms: _79  and  _81
REMARK   32  A    between atoms: _81  and  _82
REMARK   33  A    between atoms: _81  and  _84
REMARK   34  A    between atoms: _84  and  _85
REMARK   35  A    between atoms: _87  and  _89
REMARK   36  A    between atoms: _89  and  _90
REMARK   37  A    between atoms: _89  and  _92
REMARK   38  A    between atoms: _92  and  _93
REMARK   39  A    between atoms: _96  and  _98
REMARK   40  A    between atoms: _98  and  _99
REMARK   41  A    between atoms: _98  and  _101
REMARK   42  A    between atoms: _101  and  _102
REMARK   43  A    between atoms: _107  and  _108
REMARK   44  A    between atoms: _110  and  _112
REMARK   45  A    between atoms: _112  and  _113
REMARK   46  A    between atoms: _115  and  _117
REMARK   47  A    between atoms: _117  and  _118
REMARK   48  A    between atoms: _117  and  _120
REMARK   49  A    between atoms: _120  and  _121
REMARK   50  A    between atoms: _124  and  _126
REMARK   51  A    between atoms: _126  and  _127
REMARK   52  A    between atoms: _126  and  _129
REMARK   53  A    between atoms: _129  and  _130
REMARK   54  A    between atoms: _133  and  _135
REMARK   55  A    between atoms: _135  and  _136
REMARK   56  A    between atoms: _135  and  _138
REMARK   57  A    between atoms: _138  and  _139
REMARK   58  A    between atoms: _139  and  _140
REMARK   59  A    between atoms: _140  and  _141
REMARK   60  A    between atoms: _141  and  _142
REMARK   61  A    between atoms: _146  and  _148
REMARK   62  A    between atoms: _148  and  _149
REMARK   63  A    between atoms: _148  and  _151
REMARK   64  A    between atoms: _151  and  _152
REMARK   65  A    between atoms: _152  and  _153
REMARK   66  A    between atoms: _156  and  _158
REMARK   67  A    between atoms: _158  and  _159
REMARK   68  A    between atoms: _158  and  _161
REMARK   69  A    between atoms: _164  and  _166
REMARK   70  A    between atoms: _166  and  _167
REMARK   71  A    between atoms: _166  and  _169
REMARK   72  A    between atoms: _169  and  _170
REMARK   73  A    between atoms: _172  and  _174
REMARK   74  A    between atoms: _174  and  _175
REMARK   75  A    between atoms: _174  and  _177
REMARK   76  A    between atoms: _177  and  _178
REMARK   77  A    between atoms: _178  and  _179
REMARK   78  A    between atoms: _184  and  _186
REMARK   79  A    between atoms: _186  and  _187
REMARK   80  A    between atoms: _186  and  _189
REMARK   81  A    between atoms: _191  and  _193
REMARK   82  A    between atoms: _193  and  _194
REMARK   83  A    between atoms: _193  and  _196
REMARK   84  A    between atoms: _198  and  _200
REMARK   85  A    between atoms: _200  and  _201
REMARK   86  A    between atoms: _200  and  _203
REMARK   87  A    between atoms: _203  and  _204
REMARK   88  A    between atoms: _207  and  _209
REMARK   89  A    between atoms: _209  and  _210
REMARK   90  A    between atoms: _209  and  _212
REMARK   91  A    between atoms: _212  and  _213
REMARK   92  A    between atoms: _216  and  _218
REMARK   93  A    between atoms: _218  and  _219
REMARK   94  A    between atoms: _218  and  _221
REMARK   95  A    between atoms: _221  and  _222
REMARK   96  A    between atoms: _222  and  _223
REMARK   97  A    between atoms: _223  and  _224
REMARK   98  A    between atoms: _224  and  _225
REMARK   99  A    between atoms: _229  and  _231
REMARK  100  A    between atoms: _231  and  _232
REMARK  101  A    between atoms: _231  and  _234
REMARK  102  A    between atoms: _234  and  _235
REMARK  103  A    between atoms: _240  and  _242
REMARK  104  A    between atoms: _242  and  _243
REMARK  105  A    between atoms: _242  and  _245
REMARK  106  A    between atoms: _245  and  _246
REMARK  107  A    between atoms: _251  and  _252
REMARK  108  A    between atoms: _254  and  _256
REMARK  109  A    between atoms: _256  and  _257
REMARK  110  A    between atoms: _256  and  _259
REMARK  111  A    between atoms: _262  and  _264
REMARK  112  A    between atoms: _264  and  _265
REMARK  113  A    between atoms: _264  and  _267
REMARK  114  A    between atoms: _267  and  _268
REMARK  115  A    between atoms: _268  and  _269
REMARK  116  A    between atoms: _269  and  _270
REMARK  117  A    between atoms: _270  and  _271
REMARK  118  A    between atoms: _275  and  _277
REMARK  119  A    between atoms: _277  and  _278
REMARK  120  A    between atoms: _277  and  _280
REMARK  121  A    between atoms: _280  and  _281
REMARK  122  A    between atoms: _284  and  _286
REMARK  123  A    between atoms: _286  and  _287
REMARK  124  A    between atoms: _286  and  _289
REMARK  125  A    between atoms: _289  and  _290
REMARK  126  A    between atoms: _290  and  _291
REMARK  127  A    between atoms: _291  and  _292
REMARK  128  A    between atoms: _292  and  _293
REMARK                            x       y       z     vdW  Elec       q    Type
REMARK                         _______ _______ _______ _____ _____    ______ ____
ROOT
ATOM      1  O   HOH     1      20.238  36.320  33.470  0.00  0.00    +0.000 OA
ENDROOT
TORSDOF 0
REMARK  Name = ../refined-set-2016/4g0y/4g0y_pocket.pdb
REMARK  128 active torsions:
REMARK  status: ('A' for Active; 'I' for Inactive)
REMARK    1  A    between atoms: _1  and  _3
REMARK    2  A    between atoms: _3  and  _4
REMARK    3  A    between atoms: _3  and  _6
REMARK    4  A    between atoms: _6  and  _7
REMARK    5  A    between atoms: _10  and  _12
REMARK    6  A    between atoms: _12  and  _13
REMARK    7  A    between atoms: _12  and  _15
REMARK    8  A    between atoms: _15  and  _16
REMARK    9  A    between atoms: _19  and  _21
REMARK   10  A    between atoms: _21  and  _22
REMARK   11  A    between atoms: _21  and  _24
REMARK   12  A    between atoms: _27  and  _29
REMARK   13  A    between atoms: _29  and  _30
REMARK   14  A    between atoms: _29  and  _32
REMARK   15  A    between atoms: _32  and  _33
REMARK   16  A    between atoms: _37  and  _38
REMARK   17  A    between atoms: _43  and  _45
REMARK   18  A    between atoms: _45  and  _46
REMARK   19  A    between atoms: _45  and  _48
REMARK   20  A    between atoms: _48  and  _49
REMARK   21  A    between atoms: _52  and  _54
REMARK   22  A    between atoms: _54  and  _55
REMARK   23  A    between atoms: _54  and  _57
REMARK   24  A    between atoms: _57  and  _58
REMARK   25  A    between atoms: _63  and  _65
REMARK   26  A    between atoms: _65  and  _66
REMARK   27  A    between atoms: _65  and  _68
REMARK   28  A    between atoms: _68  and  _69
REMARK   29  A    between atoms: _74  and  _76
REMARK   30  A    between atoms: _76  and  _77
REMARK   31  A    between atoms: _79  and  _81
REMARK   32  A    between atoms: _81  and  _82
REMARK   33  A    between atoms: _81  and  _84
REMARK   34  A    between atoms: _84  and  _85
REMARK   35  A    between atoms: _87  and  _89
REMARK   36  A    between atoms: _89  and  _90
REMARK   37  A    between atoms: _89  and  _92
REMARK   38  A    between atoms: _92  and  _93
REMARK   39  A    between atoms: _96  and  _98
REMARK   40  A    between atoms: _98  and  _99
REMARK   41  A    between atoms: _98  and  _101
REMARK   42  A    between atoms: _101  and  _102
REMARK   43  A    between atoms: _107  and  _108
REMARK   44  A    between atoms: _110  and  _112
REMARK   45  A    between atoms: _112  and  _113
REMARK   46  A    between atoms: _115  and  _117
REMARK   47  A    between atoms: _117  and  _118
REMARK   48  A    between atoms: _117  and  _120
REMARK   49  A    between atoms: _120  and  _121
REMARK   50  A    between atoms: _124  and  _126
REMARK   51  A    between atoms: _126  and  _127
REMARK   52  A    between atoms: _126  and  _129
REMARK   53  A    between atoms: _129  and  _130
REMARK   54  A    between atoms: _133  and  _135
REMARK   55  A    between atoms: _135  and  _136
REMARK   56  A    between atoms: _135  and  _138
REMARK   57  A    between atoms: _138  and  _139
REMARK   58  A    between atoms: _139  and  _140
REMARK   59  A    between atoms: _140  and  _141
REMARK   60  A    between atoms: _141  and  _142
REMARK   61  A    between atoms: _146  and  _148
REMARK   62  A    between atoms: _148  and  _149
REMARK   63  A    between atoms: _148  and  _151
REMARK   64  A    between atoms: _151  and  _152
REMARK   65  A    between atoms: _152  and  _153
REMARK   66  A    between atoms: _156  and  _158
REMARK   67  A    between atoms: _158  and  _159
REMARK   68  A    between atoms: _158  and  _161
REMARK   69  A    between atoms: _164  and  _166
REMARK   70  A    between atoms: _166  and  _167
REMARK   71  A    between atoms: _166  and  _169
REMARK   72  A    between atoms: _169  and  _170
REMARK   73  A    between atoms: _172  and  _174
REMARK   74  A    between atoms: _174  and  _175
REMARK   75  A    between atoms: _174  and  _177
REMARK   76  A    between atoms: _177  and  _178
REMARK   77  A    between atoms: _178  and  _179
REMARK   78  A    between atoms: _184  and  _186
REMARK   79  A    between atoms: _186  and  _187
REMARK   80  A    between atoms: _186  and  _189
REMARK   81  A    between atoms: _191  and  _193
REMARK   82  A    between atoms: _193  and  _194
REMARK   83  A    between atoms: _193  and  _196
REMARK   84  A    between atoms: _198  and  _200
REMARK   85  A    between atoms: _200  and  _201
REMARK   86  A    between atoms: _200  and  _203
REMARK   87  A    between atoms: _203  and  _204
REMARK   88  A    between atoms: _207  and  _209
REMARK   89  A    between atoms: _209  and  _210
REMARK   90  A    between atoms: _209  and  _212
REMARK   91  A    between atoms: _212  and  _213
REMARK   92  A    between atoms: _216  and  _218
REMARK   93  A    between atoms: _218  and  _219
REMARK   94  A    between atoms: _218  and  _221
REMARK   95  A    between atoms: _221  and  _222
REMARK   96  A    between atoms: _222  and  _223
REMARK   97  A    between atoms: _223  and  _224
REMARK   98  A    between atoms: _224  and  _225
REMARK   99  A    between atoms: _229  and  _231
REMARK  100  A    between atoms: _231  and  _232
REMARK  101  A    between atoms: _231  and  _234
REMARK  102  A    between atoms: _234  and  _235
REMARK  103  A    between atoms: _240  and  _242
REMARK  104  A    between atoms: _242  and  _243
REMARK  105  A    between atoms: _242  and  _245
REMARK  106  A    between atoms: _245  and  _246
REMARK  107  A    between atoms: _251  and  _252
REMARK  108  A    between atoms: _254  and  _256
REMARK  109  A    between atoms: _256  and  _257
REMARK  110  A    between atoms: _256  and  _259
REMARK  111  A    between atoms: _262  and  _264
REMARK  112  A    between atoms: _264  and  _265
REMARK  113  A    between atoms: _264  and  _267
REMARK  114  A    between atoms: _267  and  _268
REMARK  115  A    between atoms: _268  and  _269
REMARK  116  A    between atoms: _269  and  _270
REMARK  117  A    between atoms: _270  and  _271
REMARK  118  A    between atoms: _275  and  _277
REMARK  119  A    between atoms: _277  and  _278
REMARK  120  A    between atoms: _277  and  _280
REMARK  121  A    between atoms: _280  and  _281
REMARK  122  A    between atoms: _284  and  _286
REMARK  123  A    between atoms: _286  and  _287
REMARK  124  A    between atoms: _286  and  _289
REMARK  125  A    between atoms: _289  and  _290
REMARK  126  A    between atoms: _290  and  _291
REMARK  127  A    between atoms: _291  and  _292
REMARK  128  A    between atoms: _292  and  _293
REMARK                            x       y       z     vdW  Elec       q    Type
REMARK                         _______ _______ _______ _____ _____    ______ ____
ROOT
ATOM      1  O   HOH     1      22.182  36.391  35.221  0.00  0.00    +0.000 OA
ENDROOT
TORSDOF 0
REMARK  Name = ../refined-set-2016/4g0y/4g0y_pocket.pdb
REMARK  128 active torsions:
REMARK  status: ('A' for Active; 'I' for Inactive)
REMARK    1  A    between atoms: _1  and  _3
REMARK    2  A    between atoms: _3  and  _4
REMARK    3  A    between atoms: _3  and  _6
REMARK    4  A    between atoms: _6  and  _7
REMARK    5  A    between atoms: _10  and  _12
REMARK    6  A    between atoms: _12  and  _13
REMARK    7  A    between atoms: _12  and  _15
REMARK    8  A    between atoms: _15  and  _16
REMARK    9  A    between atoms: _19  and  _21
REMARK   10  A    between atoms: _21  and  _22
REMARK   11  A    between atoms: _21  and  _24
REMARK   12  A    between atoms: _27  and  _29
REMARK   13  A    between atoms: _29  and  _30
REMARK   14  A    between atoms: _29  and  _32
REMARK   15  A    between atoms: _32  and  _33
REMARK   16  A    between atoms: _37  and  _38
REMARK   17  A    between atoms: _43  and  _45
REMARK   18  A    between atoms: _45  and  _46
REMARK   19  A    between atoms: _45  and  _48
REMARK   20  A    between atoms: _48  and  _49
REMARK   21  A    between atoms: _52  and  _54
REMARK   22  A    between atoms: _54  and  _55
REMARK   23  A    between atoms: _54  and  _57
REMARK   24  A    between atoms: _57  and  _58
REMARK   25  A    between atoms: _63  and  _65
REMARK   26  A    between atoms: _65  and  _66
REMARK   27  A    between atoms: _65  and  _68
REMARK   28  A    between atoms: _68  and  _69
REMARK   29  A    between atoms: _74  and  _76
REMARK   30  A    between atoms: _76  and  _77
REMARK   31  A    between atoms: _79  and  _81
REMARK   32  A    between atoms: _81  and  _82
REMARK   33  A    between atoms: _81  and  _84
REMARK   34  A    between atoms: _84  and  _85
REMARK   35  A    between atoms: _87  and  _89
REMARK   36  A    between atoms: _89  and  _90
REMARK   37  A    between atoms: _89  and  _92
REMARK   38  A    between atoms: _92  and  _93
REMARK   39  A    between atoms: _96  and  _98
REMARK   40  A    between atoms: _98  and  _99
REMARK   41  A    between atoms: _98  and  _101
REMARK   42  A    between atoms: _101  and  _102
REMARK   43  A    between atoms: _107  and  _108
REMARK   44  A    between atoms: _110  and  _112
REMARK   45  A    between atoms: _112  and  _113
REMARK   46  A    between atoms: _115  and  _117
REMARK   47  A    between atoms: _117  and  _118
REMARK   48  A    between atoms: _117  and  _120
REMARK   49  A    between atoms: _120  and  _121
REMARK   50  A    between atoms: _124  and  _126
REMARK   51  A    between atoms: _126  and  _127
REMARK   52  A    between atoms: _126  and  _129
REMARK   53  A    between atoms: _129  and  _130
REMARK   54  A    between atoms: _133  and  _135
REMARK   55  A    between atoms: _135  and  _136
REMARK   56  A    between atoms: _135  and  _138
REMARK   57  A    between atoms: _138  and  _139
REMARK   58  A    between atoms: _139  and  _140
REMARK   59  A    between atoms: _140  and  _141
REMARK   60  A    between atoms: _141  and  _142
REMARK   61  A    between atoms: _146  and  _148
REMARK   62  A    between atoms: _148  and  _149
REMARK   63  A    between atoms: _148  and  _151
REMARK   64  A    between atoms: _151  and  _152
REMARK   65  A    between atoms: _152  and  _153
REMARK   66  A    between atoms: _156  and  _158
REMARK   67  A    between atoms: _158  and  _159
REMARK   68  A    between atoms: _158  and  _161
REMARK   69  A    between atoms: _164  and  _166
REMARK   70  A    between atoms: _166  and  _167
REMARK   71  A    between atoms: _166  and  _169
REMARK   72  A    between atoms: _169  and  _170
REMARK   73  A    between atoms: _172  and  _174
REMARK   74  A    between atoms: _174  and  _175
REMARK   75  A    between atoms: _174  and  _177
REMARK   76  A    between atoms: _177  and  _178
REMARK   77  A    between atoms: _178  and  _179
REMARK   78  A    between atoms: _184  and  _186
REMARK   79  A    between atoms: _186  and  _187
REMARK   80  A    between atoms: _186  and  _189
REMARK   81  A    between atoms: _191  and  _193
REMARK   82  A    between atoms: _193  and  _194
REMARK   83  A    between atoms: _193  and  _196
REMARK   84  A    between atoms: _198  and  _200
REMARK   85  A    between atoms: _200  and  _201
REMARK   86  A    between atoms: _200  and  _203
REMARK   87  A    between atoms: _203  and  _204
REMARK   88  A    between atoms: _207  and  _209
REMARK   89  A    between atoms: _209  and  _210
REMARK   90  A    between atoms: _209  and  _212
REMARK   91  A    between atoms: _212  and  _213
REMARK   92  A    between atoms: _216  and  _218
REMARK   93  A    between atoms: _218  and  _219
REMARK   94  A    between atoms: _218  and  _221
REMARK   95  A    between atoms: _221  and  _222
REMARK   96  A    between atoms: _222  and  _223
REMARK   97  A    between atoms: _223  and  _224
REMARK   98  A    between atoms: _224  and  _225
REMARK   99  A    between atoms: _229  and  _231
REMARK  100  A    between atoms: _231  and  _232
REMARK  101  A    between atoms: _231  and  _234
REMARK  102  A    between atoms: _234  and  _235
REMARK  103  A    between atoms: _240  and  _242
REMARK  104  A    between atoms: _242  and  _243
REMARK  105  A    between atoms: _242  and  _245
REMARK  106  A    between atoms: _245  and  _246
REMARK  107  A    between atoms: _251  and  _252
REMARK  108  A    between atoms: _254  and  _256
REMARK  109  A    between atoms: _256  and  _257
REMARK  110  A    between atoms: _256  and  _259
REMARK  111  A    between atoms: _262  and  _264
REMARK  112  A    between atoms: _264  and  _265
REMARK  113  A    between atoms: _264  and  _267
REMARK  114  A    between atoms: _267  and  _268
REMARK  115  A    between atoms: _268  and  _269
REMARK  116  A    between atoms: _269  and  _270
REMARK  117  A    between atoms: _270  and  _271
REMARK  118  A    between atoms: _275  and  _277
REMARK  119  A    between atoms: _277  and  _278
REMARK  120  A    between atoms: _277  and  _280
REMARK  121  A    between atoms: _280  and  _281
REMARK  122  A    between atoms: _284  and  _286
REMARK  123  A    between atoms: _286  and  _287
REMARK  124  A    between atoms: _286  and  _289
REMARK  125  A    between atoms: _289  and  _290
REMARK  126  A    between atoms: _290  and  _291
REMARK  127  A    between atoms: _291  and  _292
REMARK  128  A    between atoms: _292  and  _293
REMARK                            x       y       z     vdW  Elec       q    Type
REMARK                         _______ _______ _______ _____ _____    ______ ____
ROOT
ATOM      1  O   HOH     1      19.846  37.957  36.214  0.00  0.00    +0.000 OA
ENDROOT
TORSDOF 0
REMARK  Name = ../refined-set-2016/4g0y/4g0y_pocket.pdb
REMARK  128 active torsions:
REMARK  status: ('A' for Active; 'I' for Inactive)
REMARK    1  A    between atoms: _1  and  _3
REMARK    2  A    between atoms: _3  and  _4
REMARK    3  A    between atoms: _3  and  _6
REMARK    4  A    between atoms: _6  and  _7
REMARK    5  A    between atoms: _10  and  _12
REMARK    6  A    between atoms: _12  and  _13
REMARK    7  A    between atoms: _12  and  _15
REMARK    8  A    between atoms: _15  and  _16
REMARK    9  A    between atoms: _19  and  _21
REMARK   10  A    between atoms: _21  and  _22
REMARK   11  A    between atoms: _21  and  _24
REMARK   12  A    between atoms: _27  and  _29
REMARK   13  A    between atoms: _29  and  _30
REMARK   14  A    between atoms: _29  and  _32
REMARK   15  A    between atoms: _32  and  _33
REMARK   16  A    between atoms: _37  and  _38
REMARK   17  A    between atoms: _43  and  _45
REMARK   18  A    between atoms: _45  and  _46
REMARK   19  A    between atoms: _45  and  _48
REMARK   20  A    between atoms: _48  and  _49
REMARK   21  A    between atoms: _52  and  _54
REMARK   22  A    between atoms: _54  and  _55
REMARK   23  A    between atoms: _54  and  _57
REMARK   24  A    between atoms: _57  and  _58
REMARK   25  A    between atoms: _63  and  _65
REMARK   26  A    between atoms: _65  and  _66
REMARK   27  A    between atoms: _65  and  _68
REMARK   28  A    between atoms: _68  and  _69
REMARK   29  A    between atoms: _74  and  _76
REMARK   30  A    between atoms: _76  and  _77
REMARK   31  A    between atoms: _79  and  _81
REMARK   32  A    between atoms: _81  and  _82
REMARK   33  A    between atoms: _81  and  _84
REMARK   34  A    between atoms: _84  and  _85
REMARK   35  A    between atoms: _87  and  _89
REMARK   36  A    between atoms: _89  and  _90
REMARK   37  A    between atoms: _89  and  _92
REMARK   38  A    between atoms: _92  and  _93
REMARK   39  A    between atoms: _96  and  _98
REMARK   40  A    between atoms: _98  and  _99
REMARK   41  A    between atoms: _98  and  _101
REMARK   42  A    between atoms: _101  and  _102
REMARK   43  A    between atoms: _107  and  _108
REMARK   44  A    between atoms: _110  and  _112
REMARK   45  A    between atoms: _112  and  _113
REMARK   46  A    between atoms: _115  and  _117
REMARK   47  A    between atoms: _117  and  _118
REMARK   48  A    between atoms: _117  and  _120
REMARK   49  A    between atoms: _120  and  _121
REMARK   50  A    between atoms: _124  and  _126
REMARK   51  A    between atoms: _126  and  _127
REMARK   52  A    between atoms: _126  and  _129
REMARK   53  A    between atoms: _129  and  _130
REMARK   54  A    between atoms: _133  and  _135
REMARK   55  A    between atoms: _135  and  _136
REMARK   56  A    between atoms: _135  and  _138
REMARK   57  A    between atoms: _138  and  _139
REMARK   58  A    between atoms: _139  and  _140
REMARK   59  A    between atoms: _140  and  _141
REMARK   60  A    between atoms: _141  and  _142
REMARK   61  A    between atoms: _146  and  _148
REMARK   62  A    between atoms: _148  and  _149
REMARK   63  A    between atoms: _148  and  _151
REMARK   64  A    between atoms: _151  and  _152
REMARK   65  A    between atoms: _152  and  _153
REMARK   66  A    between atoms: _156  and  _158
REMARK   67  A    between atoms: _158  and  _159
REMARK   68  A    between atoms: _158  and  _161
REMARK   69  A    between atoms: _164  and  _166
REMARK   70  A    between atoms: _166  and  _167
REMARK   71  A    between atoms: _166  and  _169
REMARK   72  A    between atoms: _169  and  _170
REMARK   73  A    between atoms: _172  and  _174
REMARK   74  A    between atoms: _174  and  _175
REMARK   75  A    between atoms: _174  and  _177
REMARK   76  A    between atoms: _177  and  _178
REMARK   77  A    between atoms: _178  and  _179
REMARK   78  A    between atoms: _184  and  _186
REMARK   79  A    between atoms: _186  and  _187
REMARK   80  A    between atoms: _186  and  _189
REMARK   81  A    between atoms: _191  and  _193
REMARK   82  A    between atoms: _193  and  _194
REMARK   83  A    between atoms: _193  and  _196
REMARK   84  A    between atoms: _198  and  _200
REMARK   85  A    between atoms: _200  and  _201
REMARK   86  A    between atoms: _200  and  _203
REMARK   87  A    between atoms: _203  and  _204
REMARK   88  A    between atoms: _207  and  _209
REMARK   89  A    between atoms: _209  and  _210
REMARK   90  A    between atoms: _209  and  _212
REMARK   91  A    between atoms: _212  and  _213
REMARK   92  A    between atoms: _216  and  _218
REMARK   93  A    between atoms: _218  and  _219
REMARK   94  A    between atoms: _218  and  _221
REMARK   95  A    between atoms: _221  and  _222
REMARK   96  A    between atoms: _222  and  _223
REMARK   97  A    between atoms: _223  and  _224
REMARK   98  A    between atoms: _224  and  _225
REMARK   99  A    between atoms: _229  and  _231
REMARK  100  A    between atoms: _231  and  _232
REMARK  101  A    between atoms: _231  and  _234
REMARK  102  A    between atoms: _234  and  _235
REMARK  103  A    between atoms: _240  and  _242
REMARK  104  A    between atoms: _242  and  _243
REMARK  105  A    between atoms: _242  and  _245
REMARK  106  A    between atoms: _245  and  _246
REMARK  107  A    between atoms: _251  and  _252
REMARK  108  A    between atoms: _254  and  _256
REMARK  109  A    between atoms: _256  and  _257
REMARK  110  A    between atoms: _256  and  _259
REMARK  111  A    between atoms: _262  and  _264
REMARK  112  A    between atoms: _264  and  _265
REMARK  113  A    between atoms: _264  and  _267
REMARK  114  A    between atoms: _267  and  _268
REMARK  115  A    between atoms: _268  and  _269
REMARK  116  A    between atoms: _269  and  _270
REMARK  117  A    between atoms: _270  and  _271
REMARK  118  A    between atoms: _275  and  _277
REMARK  119  A    between atoms: _277  and  _278
REMARK  120  A    between atoms: _277  and  _280
REMARK  121  A    between atoms: _280  and  _281
REMARK  122  A    between atoms: _284  and  _286
REMARK  123  A    between atoms: _286  and  _287
REMARK  124  A    between atoms: _286  and  _289
REMARK  125  A    between atoms: _289  and  _290
REMARK  126  A    between atoms: _290  and  _291
REMARK  127  A    between atoms: _291  and  _292
REMARK  128  A    between atoms: _292  and  _293
REMARK                            x       y       z     vdW  Elec       q    Type
REMARK                         _______ _______ _______ _____ _____    ______ ____
ROOT
ATOM      1  O   HOH     1      23.736  30.786  30.642  0.00  0.00    +0.000 OA
ENDROOT
TORSDOF 0
REMARK  Name = ../refined-set-2016/4g0y/4g0y_pocket.pdb
REMARK  128 active torsions:
REMARK  status: ('A' for Active; 'I' for Inactive)
REMARK    1  A    between atoms: _1  and  _3
REMARK    2  A    between atoms: _3  and  _4
REMARK    3  A    between atoms: _3  and  _6
REMARK    4  A    between atoms: _6  and  _7
REMARK    5  A    between atoms: _10  and  _12
REMARK    6  A    between atoms: _12  and  _13
REMARK    7  A    between atoms: _12  and  _15
REMARK    8  A    between atoms: _15  and  _16
REMARK    9  A    between atoms: _19  and  _21
REMARK   10  A    between atoms: _21  and  _22
REMARK   11  A    between atoms: _21  and  _24
REMARK   12  A    between atoms: _27  and  _29
REMARK   13  A    between atoms: _29  and  _30
REMARK   14  A    between atoms: _29  and  _32
REMARK   15  A    between atoms: _32  and  _33
REMARK   16  A    between atoms: _37  and  _38
REMARK   17  A    between atoms: _43  and  _45
REMARK   18  A    between atoms: _45  and  _46
REMARK   19  A    between atoms: _45  and  _48
REMARK   20  A    between atoms: _48  and  _49
REMARK   21  A    between atoms: _52  and  _54
REMARK   22  A    between atoms: _54  and  _55
REMARK   23  A    between atoms: _54  and  _57
REMARK   24  A    between atoms: _57  and  _58
REMARK   25  A    between atoms: _63  and  _65
REMARK   26  A    between atoms: _65  and  _66
REMARK   27  A    between atoms: _65  and  _68
REMARK   28  A    between atoms: _68  and  _69
REMARK   29  A    between atoms: _74  and  _76
REMARK   30  A    between atoms: _76  and  _77
REMARK   31  A    between atoms: _79  and  _81
REMARK   32  A    between atoms: _81  and  _82
REMARK   33  A    between atoms: _81  and  _84
REMARK   34  A    between atoms: _84  and  _85
REMARK   35  A    between atoms: _87  and  _89
REMARK   36  A    between atoms: _89  and  _90
REMARK   37  A    between atoms: _89  and  _92
REMARK   38  A    between atoms: _92  and  _93
REMARK   39  A    between atoms: _96  and  _98
REMARK   40  A    between atoms: _98  and  _99
REMARK   41  A    between atoms: _98  and  _101
REMARK   42  A    between atoms: _101  and  _102
REMARK   43  A    between atoms: _107  and  _108
REMARK   44  A    between atoms: _110  and  _112
REMARK   45  A    between atoms: _112  and  _113
REMARK   46  A    between atoms: _115  and  _117
REMARK   47  A    between atoms: _117  and  _118
REMARK   48  A    between atoms: _117  and  _120
REMARK   49  A    between atoms: _120  and  _121
REMARK   50  A    between atoms: _124  and  _126
REMARK   51  A    between atoms: _126  and  _127
REMARK   52  A    between atoms: _126  and  _129
REMARK   53  A    between atoms: _129  and  _130
REMARK   54  A    between atoms: _133  and  _135
REMARK   55  A    between atoms: _135  and  _136
REMARK   56  A    between atoms: _135  and  _138
REMARK   57  A    between atoms: _138  and  _139
REMARK   58  A    between atoms: _139  and  _140
REMARK   59  A    between atoms: _140  and  _141
REMARK   60  A    between atoms: _141  and  _142
REMARK   61  A    between atoms: _146  and  _148
REMARK   62  A    between atoms: _148  and  _149
REMARK   63  A    between atoms: _148  and  _151
REMARK   64  A    between atoms: _151  and  _152
REMARK   65  A    between atoms: _152  and  _153
REMARK   66  A    between atoms: _156  and  _158
REMARK   67  A    between atoms: _158  and  _159
REMARK   68  A    between atoms: _158  and  _161
REMARK   69  A    between atoms: _164  and  _166
REMARK   70  A    between atoms: _166  and  _167
REMARK   71  A    between atoms: _166  and  _169
REMARK   72  A    between atoms: _169  and  _170
REMARK   73  A    between atoms: _172  and  _174
REMARK   74  A    between atoms: _174  and  _175
REMARK   75  A    between atoms: _174  and  _177
REMARK   76  A    between atoms: _177  and  _178
REMARK   77  A    between atoms: _178  and  _179
REMARK   78  A    between atoms: _184  and  _186
REMARK   79  A    between atoms: _186  and  _187
REMARK   80  A    between atoms: _186  and  _189
REMARK   81  A    between atoms: _191  and  _193
REMARK   82  A    between atoms: _193  and  _194
REMARK   83  A    between atoms: _193  and  _196
REMARK   84  A    between atoms: _198  and  _200
REMARK   85  A    between atoms: _200  and  _201
REMARK   86  A    between atoms: _200  and  _203
REMARK   87  A    between atoms: _203  and  _204
REMARK   88  A    between atoms: _207  and  _209
REMARK   89  A    between atoms: _209  and  _210
REMARK   90  A    between atoms: _209  and  _212
REMARK   91  A    between atoms: _212  and  _213
REMARK   92  A    between atoms: _216  and  _218
REMARK   93  A    between atoms: _218  and  _219
REMARK   94  A    between atoms: _218  and  _221
REMARK   95  A    between atoms: _221  and  _222
REMARK   96  A    between atoms: _222  and  _223
REMARK   97  A    between atoms: _223  and  _224
REMARK   98  A    between atoms: _224  and  _225
REMARK   99  A    between atoms: _229  and  _231
REMARK  100  A    between atoms: _231  and  _232
REMARK  101  A    between atoms: _231  and  _234
REMARK  102  A    between atoms: _234  and  _235
REMARK  103  A    between atoms: _240  and  _242
REMARK  104  A    between atoms: _242  and  _243
REMARK  105  A    between atoms: _242  and  _245
REMARK  106  A    between atoms: _245  and  _246
REMARK  107  A    between atoms: _251  and  _252
REMARK  108  A    between atoms: _254  and  _256
REMARK  109  A    between atoms: _256  and  _257
REMARK  110  A    between atoms: _256  and  _259
REMARK  111  A    between atoms: _262  and  _264
REMARK  112  A    between atoms: _264  and  _265
REMARK  113  A    between atoms: _264  and  _267
REMARK  114  A    between atoms: _267  and  _268
REMARK  115  A    between atoms: _268  and  _269
REMARK  116  A    between atoms: _269  and  _270
REMARK  117  A    between atoms: _270  and  _271
REMARK  118  A    between atoms: _275  and  _277
REMARK  119  A    between atoms: _277  and  _278
REMARK  120  A    between atoms: _277  and  _280
REMARK  121  A    between atoms: _280  and  _281
REMARK  122  A    between atoms: _284  and  _286
REMARK  123  A    between atoms: _286  and  _287
REMARK  124  A    between atoms: _286  and  _289
REMARK  125  A    between atoms: _289  and  _290
REMARK  126  A    between atoms: _290  and  _291
REMARK  127  A    between atoms: _291  and  _292
REMARK  128  A    between atoms: _292  and  _293
REMARK                            x       y       z     vdW  Elec       q    Type
REMARK                         _______ _______ _______ _____ _____    ______ ____
ROOT
ATOM      1  O   HOH     1      25.673  28.576  30.707  0.00  0.00    +0.000 OA
ENDROOT
TORSDOF 0
REMARK  Name = ../refined-set-2016/4g0y/4g0y_pocket.pdb
REMARK  128 active torsions:
REMARK  status: ('A' for Active; 'I' for Inactive)
REMARK    1  A    between atoms: _1  and  _3
REMARK    2  A    between atoms: _3  and  _4
REMARK    3  A    between atoms: _3  and  _6
REMARK    4  A    between atoms: _6  and  _7
REMARK    5  A    between atoms: _10  and  _12
REMARK    6  A    between atoms: _12  and  _13
REMARK    7  A    between atoms: _12  and  _15
REMARK    8  A    between atoms: _15  and  _16
REMARK    9  A    between atoms: _19  and  _21
REMARK   10  A    between atoms: _21  and  _22
REMARK   11  A    between atoms: _21  and  _24
REMARK   12  A    between atoms: _27  and  _29
REMARK   13  A    between atoms: _29  and  _30
REMARK   14  A    between atoms: _29  and  _32
REMARK   15  A    between atoms: _32  and  _33
REMARK   16  A    between atoms: _37  and  _38
REMARK   17  A    between atoms: _43  and  _45
REMARK   18  A    between atoms: _45  and  _46
REMARK   19  A    between atoms: _45  and  _48
REMARK   20  A    between atoms: _48  and  _49
REMARK   21  A    between atoms: _52  and  _54
REMARK   22  A    between atoms: _54  and  _55
REMARK   23  A    between atoms: _54  and  _57
REMARK   24  A    between atoms: _57  and  _58
REMARK   25  A    between atoms: _63  and  _65
REMARK   26  A    between atoms: _65  and  _66
REMARK   27  A    between atoms: _65  and  _68
REMARK   28  A    between atoms: _68  and  _69
REMARK   29  A    between atoms: _74  and  _76
REMARK   30  A    between atoms: _76  and  _77
REMARK   31  A    between atoms: _79  and  _81
REMARK   32  A    between atoms: _81  and  _82
REMARK   33  A    between atoms: _81  and  _84
REMARK   34  A    between atoms: _84  and  _85
REMARK   35  A    between atoms: _87  and  _89
REMARK   36  A    between atoms: _89  and  _90
REMARK   37  A    between atoms: _89  and  _92
REMARK   38  A    between atoms: _92  and  _93
REMARK   39  A    between atoms: _96  and  _98
REMARK   40  A    between atoms: _98  and  _99
REMARK   41  A    between atoms: _98  and  _101
REMARK   42  A    between atoms: _101  and  _102
REMARK   43  A    between atoms: _107  and  _108
REMARK   44  A    between atoms: _110  and  _112
REMARK   45  A    between atoms: _112  and  _113
REMARK   46  A    between atoms: _115  and  _117
REMARK   47  A    between atoms: _117  and  _118
REMARK   48  A    between atoms: _117  and  _120
REMARK   49  A    between atoms: _120  and  _121
REMARK   50  A    between atoms: _124  and  _126
REMARK   51  A    between atoms: _126  and  _127
REMARK   52  A    between atoms: _126  and  _129
REMARK   53  A    between atoms: _129  and  _130
REMARK   54  A    between atoms: _133  and  _135
REMARK   55  A    between atoms: _135  and  _136
REMARK   56  A    between atoms: _135  and  _138
REMARK   57  A    between atoms: _138  and  _139
REMARK   58  A    between atoms: _139  and  _140
REMARK   59  A    between atoms: _140  and  _141
REMARK   60  A    between atoms: _141  and  _142
REMARK   61  A    between atoms: _146  and  _148
REMARK   62  A    between atoms: _148  and  _149
REMARK   63  A    between atoms: _148  and  _151
REMARK   64  A    between atoms: _151  and  _152
REMARK   65  A    between atoms: _152  and  _153
REMARK   66  A    between atoms: _156  and  _158
REMARK   67  A    between atoms: _158  and  _159
REMARK   68  A    between atoms: _158  and  _161
REMARK   69  A    between atoms: _164  and  _166
REMARK   70  A    between atoms: _166  and  _167
REMARK   71  A    between atoms: _166  and  _169
REMARK   72  A    between atoms: _169  and  _170
REMARK   73  A    between atoms: _172  and  _174
REMARK   74  A    between atoms: _174  and  _175
REMARK   75  A    between atoms: _174  and  _177
REMARK   76  A    between atoms: _177  and  _178
REMARK   77  A    between atoms: _178  and  _179
REMARK   78  A    between atoms: _184  and  _186
REMARK   79  A    between atoms: _186  and  _187
REMARK   80  A    between atoms: _186  and  _189
REMARK   81  A    between atoms: _191  and  _193
REMARK   82  A    between atoms: _193  and  _194
REMARK   83  A    between atoms: _193  and  _196
REMARK   84  A    between atoms: _198  and  _200
REMARK   85  A    between atoms: _200  and  _201
REMARK   86  A    between atoms: _200  and  _203
REMARK   87  A    between atoms: _203  and  _204
REMARK   88  A    between atoms: _207  and  _209
REMARK   89  A    between atoms: _209  and  _210
REMARK   90  A    between atoms: _209  and  _212
REMARK   91  A    between atoms: _212  and  _213
REMARK   92  A    between atoms: _216  and  _218
REMARK   93  A    between atoms: _218  and  _219
REMARK   94  A    between atoms: _218  and  _221
REMARK   95  A    between atoms: _221  and  _222
REMARK   96  A    between atoms: _222  and  _223
REMARK   97  A    between atoms: _223  and  _224
REMARK   98  A    between atoms: _224  and  _225
REMARK   99  A    between atoms: _229  and  _231
REMARK  100  A    between atoms: _231  and  _232
REMARK  101  A    between atoms: _231  and  _234
REMARK  102  A    between atoms: _234  and  _235
REMARK  103  A    between atoms: _240  and  _242
REMARK  104  A    between atoms: _242  and  _243
REMARK  105  A    between atoms: _242  and  _245
REMARK  106  A    between atoms: _245  and  _246
REMARK  107  A    between atoms: _251  and  _252
REMARK  108  A    between atoms: _254  and  _256
REMARK  109  A    between atoms: _256  and  _257
REMARK  110  A    between atoms: _256  and  _259
REMARK  111  A    between atoms: _262  and  _264
REMARK  112  A    between atoms: _264  and  _265
REMARK  113  A    between atoms: _264  and  _267
REMARK  114  A    between atoms: _267  and  _268
REMARK  115  A    between atoms: _268  and  _269
REMARK  116  A    between atoms: _269  and  _270
REMARK  117  A    between atoms: _270  and  _271
REMARK  118  A    between atoms: _275  and  _277
REMARK  119  A    between atoms: _277  and  _278
REMARK  120  A    between atoms: _277  and  _280
REMARK  121  A    between atoms: _280  and  _281
REMARK  122  A    between atoms: _284  and  _286
REMARK  123  A    between atoms: _286  and  _287
REMARK  124  A    between atoms: _286  and  _289
REMARK  125  A    between atoms: _289  and  _290
REMARK  126  A    between atoms: _290  and  _291
REMARK  127  A    between atoms: _291  and  _292
REMARK  128  A    between atoms: _292  and  _293
REMARK                            x       y       z     vdW  Elec       q    Type
REMARK                         _______ _______ _______ _____ _____    ______ ____
ROOT
ATOM      1  O   HOH     1      27.807  34.210  43.458  0.00  0.00    +0.000 OA
ENDROOT
TORSDOF 0
