REMARK  Name = ../refined-set-2016/3g2h/3g2h_pocket.pdb
REMARK  253 active torsions:
REMARK  status: ('A' for Active; 'I' for Inactive)
REMARK    1  A    between atoms: _1  and  _3
REMARK    2  A    between atoms: _3  and  _4
REMARK    3  A    between atoms: _3  and  _6
REMARK    4  A    between atoms: _6  and  _7
REMARK    5  A    between atoms: _12  and  _13
REMARK    6  A    between atoms: _15  and  _17
REMARK    7  A    between atoms: _17  and  _18
REMARK    8  A    between atoms: _17  and  _20
REMARK    9  A    between atoms: _20  and  _21
REMARK   10  A    between atoms: _21  and  _22
REMARK   11  A    between atoms: _25  and  _27
REMARK   12  A    between atoms: _27  and  _28
REMARK   13  A    between atoms: _27  and  _30
REMARK   14  A    between atoms: _30  and  _31
REMARK   15  A    between atoms: _36  and  _38
REMARK   16  A    between atoms: _38  and  _39
REMARK   17  A    between atoms: _41  and  _43
REMARK   18  A    between atoms: _43  and  _44
REMARK   19  A    between atoms: _46  and  _48
REMARK   20  A    between atoms: _48  and  _49
REMARK   21  A    between atoms: _48  and  _51
REMARK   22  A    between atoms: _51  and  _52
REMARK   23  A    between atoms: _55  and  _57
REMARK   24  A    between atoms: _57  and  _58
REMARK   25  A    between atoms: _60  and  _62
REMARK   26  A    between atoms: _62  and  _63
REMARK   27  A    between atoms: _62  and  _65
REMARK   28  A    between atoms: _65  and  _66
REMARK   29  A    between atoms: _66  and  _67
REMARK   30  A    between atoms: _67  and  _68
REMARK   31  A    between atoms: _77  and  _79
REMARK   32  A    between atoms: _79  and  _80
REMARK   33  A    between atoms: _79  and  _82
REMARK   34  A    between atoms: _82  and  _83
REMARK   35  A    between atoms: _86  and  _88
REMARK   36  A    between atoms: _88  and  _89
REMARK   37  A    between atoms: _92  and  _94
REMARK   38  A    between atoms: _94  and  _95
REMARK   39  A    between atoms: _94  and  _97
REMARK   40  A    between atoms: _97  and  _98
REMARK   41  A    between atoms: _104  and  _106
REMARK   42  A    between atoms: _106  and  _107
REMARK   43  A    between atoms: _106  and  _109
REMARK   44  A    between atoms: _109  and  _110
REMARK   45  A    between atoms: _115  and  _117
REMARK   46  A    between atoms: _117  and  _118
REMARK   47  A    between atoms: _117  and  _120
REMARK   48  A    between atoms: _120  and  _121
REMARK   49  A    between atoms: _124  and  _126
REMARK   50  A    between atoms: _126  and  _127
REMARK   51  A    between atoms: _126  and  _129
REMARK   52  A    between atoms: _129  and  _130
REMARK   53  A    between atoms: _135  and  _137
REMARK   54  A    between atoms: _137  and  _138
REMARK   55  A    between atoms: _137  and  _140
REMARK   56  A    between atoms: _140  and  _141
REMARK   57  A    between atoms: _147  and  _149
REMARK   58  A    between atoms: _149  and  _150
REMARK   59  A    between atoms: _149  and  _152
REMARK   60  A    between atoms: _152  and  _153
REMARK   61  A    between atoms: _159  and  _161
REMARK   62  A    between atoms: _161  and  _162
REMARK   63  A    between atoms: _161  and  _164
REMARK   64  A    between atoms: _164  and  _165
REMARK   65  A    between atoms: _165  and  _166
REMARK   66  A    between atoms: _169  and  _171
REMARK   67  A    between atoms: _171  and  _172
REMARK   68  A    between atoms: _171  and  _174
REMARK   69  A    between atoms: _174  and  _175
REMARK   70  A    between atoms: _175  and  _176
REMARK   71  A    between atoms: _176  and  _177
REMARK   72  A    between atoms: _186  and  _188
REMARK   73  A    between atoms: _188  and  _189
REMARK   74  A    between atoms: _188  and  _191
REMARK   75  A    between atoms: _191  and  _192
REMARK   76  A    between atoms: _197  and  _199
REMARK   77  A    between atoms: _199  and  _200
REMARK   78  A    between atoms: _199  and  _202
REMARK   79  A    between atoms: _202  and  _203
REMARK   80  A    between atoms: _206  and  _208
REMARK   81  A    between atoms: _208  and  _209
REMARK   82  A    between atoms: _208  and  _211
REMARK   83  A    between atoms: _211  and  _212
REMARK   84  A    between atoms: _215  and  _217
REMARK   85  A    between atoms: _217  and  _218
REMARK   86  A    between atoms: _217  and  _220
REMARK   87  A    between atoms: _220  and  _221
REMARK   88  A    between atoms: _226  and  _228
REMARK   89  A    between atoms: _228  and  _229
REMARK   90  A    between atoms: _228  and  _231
REMARK   91  A    between atoms: _231  and  _232
REMARK   92  A    between atoms: _237  and  _238
REMARK   93  A    between atoms: _240  and  _242
REMARK   94  A    between atoms: _242  and  _243
REMARK   95  A    between atoms: _242  and  _245
REMARK   96  A    between atoms: _245  and  _246
REMARK   97  A    between atoms: _249  and  _251
REMARK   98  A    between atoms: _251  and  _252
REMARK   99  A    between atoms: _251  and  _254
REMARK  100  A    between atoms: _254  and  _255
REMARK  101  A    between atoms: _260  and  _262
REMARK  102  A    between atoms: _262  and  _263
REMARK  103  A    between atoms: _262  and  _265
REMARK  104  A    between atoms: _265  and  _266
REMARK  105  A    between atoms: _271  and  _273
REMARK  106  A    between atoms: _273  and  _274
REMARK  107  A    between atoms: _273  and  _276
REMARK  108  A    between atoms: _276  and  _277
REMARK  109  A    between atoms: _280  and  _282
REMARK  110  A    between atoms: _282  and  _283
REMARK  111  A    between atoms: _282  and  _285
REMARK  112  A    between atoms: _288  and  _290
REMARK  113  A    between atoms: _290  and  _291
REMARK  114  A    between atoms: _290  and  _293
REMARK  115  A    between atoms: _293  and  _294
REMARK  116  A    between atoms: _297  and  _299
REMARK  117  A    between atoms: _299  and  _300
REMARK  118  A    between atoms: _299  and  _302
REMARK  119  A    between atoms: _302  and  _303
REMARK  120  A    between atoms: _303  and  _304
REMARK  121  A    between atoms: _307  and  _309
REMARK  122  A    between atoms: _309  and  _310
REMARK  123  A    between atoms: _313  and  _315
REMARK  124  A    between atoms: _315  and  _316
REMARK  125  A    between atoms: _315  and  _318
REMARK  126  A    between atoms: _318  and  _319
REMARK  127  A    between atoms: _322  and  _324
REMARK  128  A    between atoms: _324  and  _325
REMARK  129  A    between atoms: _324  and  _327
REMARK  130  A    between atoms: _327  and  _328
REMARK  131  A    between atoms: _328  and  _329
REMARK  132  A    between atoms: _332  and  _334
REMARK  133  A    between atoms: _334  and  _335
REMARK  134  A    between atoms: _334  and  _337
REMARK  135  A    between atoms: _337  and  _338
REMARK  136  A    between atoms: _343  and  _345
REMARK  137  A    between atoms: _345  and  _346
REMARK  138  A    between atoms: _348  and  _350
REMARK  139  A    between atoms: _350  and  _351
REMARK  140  A    between atoms: _350  and  _353
REMARK  141  A    between atoms: _356  and  _358
REMARK  142  A    between atoms: _358  and  _359
REMARK  143  A    between atoms: _362  and  _364
REMARK  144  A    between atoms: _364  and  _365
REMARK  145  A    between atoms: _364  and  _367
REMARK  146  A    between atoms: _367  and  _368
REMARK  147  A    between atoms: _373  and  _375
REMARK  148  A    between atoms: _375  and  _376
REMARK  149  A    between atoms: _375  and  _378
REMARK  150  A    between atoms: _378  and  _379
REMARK  151  A    between atoms: _379  and  _380
REMARK  152  A    between atoms: _380  and  _381
REMARK  153  A    between atoms: _381  and  _382
REMARK  154  A    between atoms: _386  and  _388
REMARK  155  A    between atoms: _388  and  _389
REMARK  156  A    between atoms: _388  and  _391
REMARK  157  A    between atoms: _391  and  _392
REMARK  158  A    between atoms: _395  and  _397
REMARK  159  A    between atoms: _397  and  _398
REMARK  160  A    between atoms: _397  and  _400
REMARK  161  A    between atoms: _400  and  _401
REMARK  162  A    between atoms: _406  and  _408
REMARK  163  A    between atoms: _408  and  _409
REMARK  164  A    between atoms: _411  and  _413
REMARK  165  A    between atoms: _413  and  _414
REMARK  166  A    between atoms: _413  and  _416
REMARK  167  A    between atoms: _416  and  _417
REMARK  168  A    between atoms: _417  and  _418
REMARK  169  A    between atoms: _418  and  _419
REMARK  170  A    between atoms: _419  and  _420
REMARK  171  A    between atoms: _424  and  _426
REMARK  172  A    between atoms: _426  and  _427
REMARK  173  A    between atoms: _426  and  _429
REMARK  174  A    between atoms: _429  and  _430
REMARK  175  A    between atoms: _430  and  _431
REMARK  176  A    between atoms: _431  and  _432
REMARK  177  A    between atoms: _441  and  _443
REMARK  178  A    between atoms: _443  and  _444
REMARK  179  A    between atoms: _443  and  _446
REMARK  180  A    between atoms: _446  and  _447
REMARK  181  A    between atoms: _452  and  _454
REMARK  182  A    between atoms: _454  and  _455
REMARK  183  A    between atoms: _454  and  _457
REMARK  184  A    between atoms: _457  and  _458
REMARK  185  A    between atoms: _463  and  _464
REMARK  186  A    between atoms: _466  and  _468
REMARK  187  A    between atoms: _468  and  _469
REMARK  188  A    between atoms: _468  and  _471
REMARK  189  A    between atoms: _471  and  _472
REMARK  190  A    between atoms: _472  and  _473
REMARK  191  A    between atoms: _473  and  _474
REMARK  192  A    between atoms: _474  and  _475
REMARK  193  A    between atoms: _479  and  _481
REMARK  194  A    between atoms: _481  and  _482
REMARK  195  A    between atoms: _481  and  _484
REMARK  196  A    between atoms: _484  and  _485
REMARK  197  A    between atoms: _487  and  _489
REMARK  198  A    between atoms: _489  and  _490
REMARK  199  A    between atoms: _489  and  _492
REMARK  200  A    between atoms: _492  and  _493
REMARK  201  A    between atoms: _496  and  _498
REMARK  202  A    between atoms: _498  and  _499
REMARK  203  A    between atoms: _498  and  _501
REMARK  204  A    between atoms: _501  and  _502
REMARK  205  A    between atoms: _502  and  _503
REMARK  206  A    between atoms: _506  and  _508
REMARK  207  A    between atoms: _508  and  _509
REMARK  208  A    between atoms: _512  and  _514
REMARK  209  A    between atoms: _514  and  _515
REMARK  210  A    between atoms: _514  and  _517
REMARK  211  A    between atoms: _517  and  _518
REMARK  212  A    between atoms: _520  and  _522
REMARK  213  A    between atoms: _522  and  _523
REMARK  214  A    between atoms: _525  and  _527
REMARK  215  A    between atoms: _527  and  _528
REMARK  216  A    between atoms: _527  and  _530
REMARK  217  A    between atoms: _530  and  _531
REMARK  218  A    between atoms: _534  and  _536
REMARK  219  A    between atoms: _536  and  _537
REMARK  220  A    between atoms: _539  and  _541
REMARK  221  A    between atoms: _541  and  _542
REMARK  222  A    between atoms: _541  and  _544
REMARK  223  A    between atoms: _544  and  _545
REMARK  224  A    between atoms: _550  and  _552
REMARK  225  A    between atoms: _552  and  _553
REMARK  226  A    between atoms: _552  and  _555
REMARK  227  A    between atoms: _555  and  _556
REMARK  228  A    between atoms: _556  and  _557
REMARK  229  A    between atoms: _564  and  _565
REMARK  230  A    between atoms: _565  and  _581
REMARK  231  A    between atoms: _566  and  _568
REMARK  232  A    between atoms: _568  and  _569
REMARK  233  A    between atoms: _569  and  _570
REMARK  234  A    between atoms: _574  and  _576
REMARK  235  A    between atoms: _576  and  _577
REMARK  236  A    between atoms: _576  and  _584
REMARK  237  A    between atoms: _577  and  _578
REMARK  238  A    between atoms: _578  and  _579
REMARK  239  A    between atoms: _579  and  _580
REMARK  240  A    between atoms: _580  and  _581
REMARK  241  A    between atoms: _586  and  _588
REMARK  242  A    between atoms: _588  and  _589
REMARK  243  A    between atoms: _588  and  _591
REMARK  244  A    between atoms: _591  and  _592
REMARK  245  A    between atoms: _595  and  _597
REMARK  246  A    between atoms: _597  and  _598
REMARK  247  A    between atoms: _600  and  _602
REMARK  248  A    between atoms: _602  and  _603
REMARK  249  A    between atoms: _606  and  _608
REMARK  250  A    between atoms: _608  and  _609
REMARK  251  A    between atoms: _608  and  _611
REMARK  252  A    between atoms: _611  and  _612
REMARK  253  A    between atoms: _617  and  _618
REMARK                            x       y       z     vdW  Elec       q    Type
REMARK                         _______ _______ _______ _____ _____    ______ ____
ROOT
ATOM      1  CG  TYR A   1      32.929  11.322  36.041  0.00  0.00    -0.020 A 
ATOM      2  CD2 TYR A   1      32.568  12.664  36.134  0.00  0.00    -0.001 A 
ATOM      3  CE2 TYR A   1      32.632  13.500  35.026  0.00  0.00    +0.036 A 
ATOM      4  CZ  TYR A   1      33.057  12.996  33.813  0.00  0.00    +0.134 A 
ATOM      5  CE1 TYR A   1      33.424  11.669  33.694  0.00  0.00    +0.036 A 
ATOM      6  CD1 TYR A   1      33.356  10.839  34.804  0.00  0.00    -0.001 A 
ENDROOT
BRANCH   4   7
ATOM      7  OH  TYR A   1      33.119  13.819  32.708  0.00  0.00    -0.506 OA
ATOM      8  HH  TYR A   1      33.441  13.300  31.929  0.00  0.00    +0.292 HD
ENDBRANCH   4   7
BRANCH   1   9
ATOM      9  CB  TYR A   1      32.875  10.415  37.245  0.00  0.00    +0.051 C 
BRANCH   9  10
ATOM     10  CA  TYR A   1      34.221  10.309  37.973  0.00  0.00    +0.137 C 
BRANCH  10  11
ATOM     11  N   TYR A   1      34.254   9.144  38.830  0.00  0.00    -0.239 NA
ATOM     12  H   TYR A   1      33.387   8.865  39.332  0.00  0.00    +0.142 HD
ENDBRANCH  10  11
BRANCH  10  13
ATOM     13  C   TYR A   1      34.473  11.553  38.819  0.00  0.00    +0.224 C 
ATOM     14  O   TYR A   1      33.583  12.019  39.536  0.00  0.00    -0.287 OA
ENDBRANCH  10  13
ENDBRANCH   9  10
ENDBRANCH   1   9
TORSDOF 5
REMARK  Name = ../refined-set-2016/3g2h/3g2h_pocket.pdb
REMARK  253 active torsions:
REMARK  status: ('A' for Active; 'I' for Inactive)
REMARK    1  A    between atoms: _1  and  _3
REMARK    2  A    between atoms: _3  and  _4
REMARK    3  A    between atoms: _3  and  _6
REMARK    4  A    between atoms: _6  and  _7
REMARK    5  A    between atoms: _12  and  _13
REMARK    6  A    between atoms: _15  and  _17
REMARK    7  A    between atoms: _17  and  _18
REMARK    8  A    between atoms: _17  and  _20
REMARK    9  A    between atoms: _20  and  _21
REMARK   10  A    between atoms: _21  and  _22
REMARK   11  A    between atoms: _25  and  _27
REMARK   12  A    between atoms: _27  and  _28
REMARK   13  A    between atoms: _27  and  _30
REMARK   14  A    between atoms: _30  and  _31
REMARK   15  A    between atoms: _36  and  _38
REMARK   16  A    between atoms: _38  and  _39
REMARK   17  A    between atoms: _41  and  _43
REMARK   18  A    between atoms: _43  and  _44
REMARK   19  A    between atoms: _46  and  _48
REMARK   20  A    between atoms: _48  and  _49
REMARK   21  A    between atoms: _48  and  _51
REMARK   22  A    between atoms: _51  and  _52
REMARK   23  A    between atoms: _55  and  _57
REMARK   24  A    between atoms: _57  and  _58
REMARK   25  A    between atoms: _60  and  _62
REMARK   26  A    between atoms: _62  and  _63
REMARK   27  A    between atoms: _62  and  _65
REMARK   28  A    between atoms: _65  and  _66
REMARK   29  A    between atoms: _66  and  _67
REMARK   30  A    between atoms: _67  and  _68
REMARK   31  A    between atoms: _77  and  _79
REMARK   32  A    between atoms: _79  and  _80
REMARK   33  A    between atoms: _79  and  _82
REMARK   34  A    between atoms: _82  and  _83
REMARK   35  A    between atoms: _86  and  _88
REMARK   36  A    between atoms: _88  and  _89
REMARK   37  A    between atoms: _92  and  _94
REMARK   38  A    between atoms: _94  and  _95
REMARK   39  A    between atoms: _94  and  _97
REMARK   40  A    between atoms: _97  and  _98
REMARK   41  A    between atoms: _104  and  _106
REMARK   42  A    between atoms: _106  and  _107
REMARK   43  A    between atoms: _106  and  _109
REMARK   44  A    between atoms: _109  and  _110
REMARK   45  A    between atoms: _115  and  _117
REMARK   46  A    between atoms: _117  and  _118
REMARK   47  A    between atoms: _117  and  _120
REMARK   48  A    between atoms: _120  and  _121
REMARK   49  A    between atoms: _124  and  _126
REMARK   50  A    between atoms: _126  and  _127
REMARK   51  A    between atoms: _126  and  _129
REMARK   52  A    between atoms: _129  and  _130
REMARK   53  A    between atoms: _135  and  _137
REMARK   54  A    between atoms: _137  and  _138
REMARK   55  A    between atoms: _137  and  _140
REMARK   56  A    between atoms: _140  and  _141
REMARK   57  A    between atoms: _147  and  _149
REMARK   58  A    between atoms: _149  and  _150
REMARK   59  A    between atoms: _149  and  _152
REMARK   60  A    between atoms: _152  and  _153
REMARK   61  A    between atoms: _159  and  _161
REMARK   62  A    between atoms: _161  and  _162
REMARK   63  A    between atoms: _161  and  _164
REMARK   64  A    between atoms: _164  and  _165
REMARK   65  A    between atoms: _165  and  _166
REMARK   66  A    between atoms: _169  and  _171
REMARK   67  A    between atoms: _171  and  _172
REMARK   68  A    between atoms: _171  and  _174
REMARK   69  A    between atoms: _174  and  _175
REMARK   70  A    between atoms: _175  and  _176
REMARK   71  A    between atoms: _176  and  _177
REMARK   72  A    between atoms: _186  and  _188
REMARK   73  A    between atoms: _188  and  _189
REMARK   74  A    between atoms: _188  and  _191
REMARK   75  A    between atoms: _191  and  _192
REMARK   76  A    between atoms: _197  and  _199
REMARK   77  A    between atoms: _199  and  _200
REMARK   78  A    between atoms: _199  and  _202
REMARK   79  A    between atoms: _202  and  _203
REMARK   80  A    between atoms: _206  and  _208
REMARK   81  A    between atoms: _208  and  _209
REMARK   82  A    between atoms: _208  and  _211
REMARK   83  A    between atoms: _211  and  _212
REMARK   84  A    between atoms: _215  and  _217
REMARK   85  A    between atoms: _217  and  _218
REMARK   86  A    between atoms: _217  and  _220
REMARK   87  A    between atoms: _220  and  _221
REMARK   88  A    between atoms: _226  and  _228
REMARK   89  A    between atoms: _228  and  _229
REMARK   90  A    between atoms: _228  and  _231
REMARK   91  A    between atoms: _231  and  _232
REMARK   92  A    between atoms: _237  and  _238
REMARK   93  A    between atoms: _240  and  _242
REMARK   94  A    between atoms: _242  and  _243
REMARK   95  A    between atoms: _242  and  _245
REMARK   96  A    between atoms: _245  and  _246
REMARK   97  A    between atoms: _249  and  _251
REMARK   98  A    between atoms: _251  and  _252
REMARK   99  A    between atoms: _251  and  _254
REMARK  100  A    between atoms: _254  and  _255
REMARK  101  A    between atoms: _260  and  _262
REMARK  102  A    between atoms: _262  and  _263
REMARK  103  A    between atoms: _262  and  _265
REMARK  104  A    between atoms: _265  and  _266
REMARK  105  A    between atoms: _271  and  _273
REMARK  106  A    between atoms: _273  and  _274
REMARK  107  A    between atoms: _273  and  _276
REMARK  108  A    between atoms: _276  and  _277
REMARK  109  A    between atoms: _280  and  _282
REMARK  110  A    between atoms: _282  and  _283
REMARK  111  A    between atoms: _282  and  _285
REMARK  112  A    between atoms: _288  and  _290
REMARK  113  A    between atoms: _290  and  _291
REMARK  114  A    between atoms: _290  and  _293
REMARK  115  A    between atoms: _293  and  _294
REMARK  116  A    between atoms: _297  and  _299
REMARK  117  A    between atoms: _299  and  _300
REMARK  118  A    between atoms: _299  and  _302
REMARK  119  A    between atoms: _302  and  _303
REMARK  120  A    between atoms: _303  and  _304
REMARK  121  A    between atoms: _307  and  _309
REMARK  122  A    between atoms: _309  and  _310
REMARK  123  A    between atoms: _313  and  _315
REMARK  124  A    between atoms: _315  and  _316
REMARK  125  A    between atoms: _315  and  _318
REMARK  126  A    between atoms: _318  and  _319
REMARK  127  A    between atoms: _322  and  _324
REMARK  128  A    between atoms: _324  and  _325
REMARK  129  A    between atoms: _324  and  _327
REMARK  130  A    between atoms: _327  and  _328
REMARK  131  A    between atoms: _328  and  _329
REMARK  132  A    between atoms: _332  and  _334
REMARK  133  A    between atoms: _334  and  _335
REMARK  134  A    between atoms: _334  and  _337
REMARK  135  A    between atoms: _337  and  _338
REMARK  136  A    between atoms: _343  and  _345
REMARK  137  A    between atoms: _345  and  _346
REMARK  138  A    between atoms: _348  and  _350
REMARK  139  A    between atoms: _350  and  _351
REMARK  140  A    between atoms: _350  and  _353
REMARK  141  A    between atoms: _356  and  _358
REMARK  142  A    between atoms: _358  and  _359
REMARK  143  A    between atoms: _362  and  _364
REMARK  144  A    between atoms: _364  and  _365
REMARK  145  A    between atoms: _364  and  _367
REMARK  146  A    between atoms: _367  and  _368
REMARK  147  A    between atoms: _373  and  _375
REMARK  148  A    between atoms: _375  and  _376
REMARK  149  A    between atoms: _375  and  _378
REMARK  150  A    between atoms: _378  and  _379
REMARK  151  A    between atoms: _379  and  _380
REMARK  152  A    between atoms: _380  and  _381
REMARK  153  A    between atoms: _381  and  _382
REMARK  154  A    between atoms: _386  and  _388
REMARK  155  A    between atoms: _388  and  _389
REMARK  156  A    between atoms: _388  and  _391
REMARK  157  A    between atoms: _391  and  _392
REMARK  158  A    between atoms: _395  and  _397
REMARK  159  A    between atoms: _397  and  _398
REMARK  160  A    between atoms: _397  and  _400
REMARK  161  A    between atoms: _400  and  _401
REMARK  162  A    between atoms: _406  and  _408
REMARK  163  A    between atoms: _408  and  _409
REMARK  164  A    between atoms: _411  and  _413
REMARK  165  A    between atoms: _413  and  _414
REMARK  166  A    between atoms: _413  and  _416
REMARK  167  A    between atoms: _416  and  _417
REMARK  168  A    between atoms: _417  and  _418
REMARK  169  A    between atoms: _418  and  _419
REMARK  170  A    between atoms: _419  and  _420
REMARK  171  A    between atoms: _424  and  _426
REMARK  172  A    between atoms: _426  and  _427
REMARK  173  A    between atoms: _426  and  _429
REMARK  174  A    between atoms: _429  and  _430
REMARK  175  A    between atoms: _430  and  _431
REMARK  176  A    between atoms: _431  and  _432
REMARK  177  A    between atoms: _441  and  _443
REMARK  178  A    between atoms: _443  and  _444
REMARK  179  A    between atoms: _443  and  _446
REMARK  180  A    between atoms: _446  and  _447
REMARK  181  A    between atoms: _452  and  _454
REMARK  182  A    between atoms: _454  and  _455
REMARK  183  A    between atoms: _454  and  _457
REMARK  184  A    between atoms: _457  and  _458
REMARK  185  A    between atoms: _463  and  _464
REMARK  186  A    between atoms: _466  and  _468
REMARK  187  A    between atoms: _468  and  _469
REMARK  188  A    between atoms: _468  and  _471
REMARK  189  A    between atoms: _471  and  _472
REMARK  190  A    between atoms: _472  and  _473
REMARK  191  A    between atoms: _473  and  _474
REMARK  192  A    between atoms: _474  and  _475
REMARK  193  A    between atoms: _479  and  _481
REMARK  194  A    between atoms: _481  and  _482
REMARK  195  A    between atoms: _481  and  _484
REMARK  196  A    between atoms: _484  and  _485
REMARK  197  A    between atoms: _487  and  _489
REMARK  198  A    between atoms: _489  and  _490
REMARK  199  A    between atoms: _489  and  _492
REMARK  200  A    between atoms: _492  and  _493
REMARK  201  A    between atoms: _496  and  _498
REMARK  202  A    between atoms: _498  and  _499
REMARK  203  A    between atoms: _498  and  _501
REMARK  204  A    between atoms: _501  and  _502
REMARK  205  A    between atoms: _502  and  _503
REMARK  206  A    between atoms: _506  and  _508
REMARK  207  A    between atoms: _508  and  _509
REMARK  208  A    between atoms: _512  and  _514
REMARK  209  A    between atoms: _514  and  _515
REMARK  210  A    between atoms: _514  and  _517
REMARK  211  A    between atoms: _517  and  _518
REMARK  212  A    between atoms: _520  and  _522
REMARK  213  A    between atoms: _522  and  _523
REMARK  214  A    between atoms: _525  and  _527
REMARK  215  A    between atoms: _527  and  _528
REMARK  216  A    between atoms: _527  and  _530
REMARK  217  A    between atoms: _530  and  _531
REMARK  218  A    between atoms: _534  and  _536
REMARK  219  A    between atoms: _536  and  _537
REMARK  220  A    between atoms: _539  and  _541
REMARK  221  A    between atoms: _541  and  _542
REMARK  222  A    between atoms: _541  and  _544
REMARK  223  A    between atoms: _544  and  _545
REMARK  224  A    between atoms: _550  and  _552
REMARK  225  A    between atoms: _552  and  _553
REMARK  226  A    between atoms: _552  and  _555
REMARK  227  A    between atoms: _555  and  _556
REMARK  228  A    between atoms: _556  and  _557
REMARK  229  A    between atoms: _564  and  _565
REMARK  230  A    between atoms: _565  and  _581
REMARK  231  A    between atoms: _566  and  _568
REMARK  232  A    between atoms: _568  and  _569
REMARK  233  A    between atoms: _569  and  _570
REMARK  234  A    between atoms: _574  and  _576
REMARK  235  A    between atoms: _576  and  _577
REMARK  236  A    between atoms: _576  and  _584
REMARK  237  A    between atoms: _577  and  _578
REMARK  238  A    between atoms: _578  and  _579
REMARK  239  A    between atoms: _579  and  _580
REMARK  240  A    between atoms: _580  and  _581
REMARK  241  A    between atoms: _586  and  _588
REMARK  242  A    between atoms: _588  and  _589
REMARK  243  A    between atoms: _588  and  _591
REMARK  244  A    between atoms: _591  and  _592
REMARK  245  A    between atoms: _595  and  _597
REMARK  246  A    between atoms: _597  and  _598
REMARK  247  A    between atoms: _600  and  _602
REMARK  248  A    between atoms: _602  and  _603
REMARK  249  A    between atoms: _606  and  _608
REMARK  250  A    between atoms: _608  and  _609
REMARK  251  A    between atoms: _608  and  _611
REMARK  252  A    between atoms: _611  and  _612
REMARK  253  A    between atoms: _617  and  _618
REMARK                            x       y       z     vdW  Elec       q    Type
REMARK                         _______ _______ _______ _____ _____    ______ ____
ROOT
ATOM      1  CA  GLU A   1      31.235  20.530  38.698  0.00  0.00    +0.134 C 
ENDROOT
BRANCH   1   2
ATOM      2  N   GLU A   1      32.542  20.044  39.107  0.00  0.00    -0.239 NA
ATOM      3  H   GLU A   1      32.963  19.238  38.602  0.00  0.00    +0.142 HD
ENDBRANCH   1   2
BRANCH   1   4
ATOM      4  C   GLU A   1      30.302  19.378  38.371  0.00  0.00    +0.224 C 
ATOM      5  O   GLU A   1      30.672  18.434  37.663  0.00  0.00    -0.287 OA
ENDBRANCH   1   4
BRANCH   1   6
ATOM      6  CB  GLU A   1      31.352  21.470  37.491  0.00  0.00    +0.037 C 
BRANCH   6   7
ATOM      7  CG  GLU A   1      32.261  22.671  37.736  0.00  0.00    +0.116 C 
BRANCH   7   8
ATOM      8  CD  GLU A   1      32.177  23.720  36.657  0.00  0.00    +0.365 C 
ATOM      9  OE2 GLU A   1      33.110  24.539  36.587  0.00  0.00    -0.246 OA
ATOM     10  OE1 GLU A   1      31.190  23.740  35.886  0.00  0.00    -0.246 OA
ENDBRANCH   7   8
ENDBRANCH   6   7
ENDBRANCH   1   6
TORSDOF 5
REMARK  Name = ../refined-set-2016/3g2h/3g2h_pocket.pdb
REMARK  253 active torsions:
REMARK  status: ('A' for Active; 'I' for Inactive)
REMARK    1  A    between atoms: _1  and  _3
REMARK    2  A    between atoms: _3  and  _4
REMARK    3  A    between atoms: _3  and  _6
REMARK    4  A    between atoms: _6  and  _7
REMARK    5  A    between atoms: _12  and  _13
REMARK    6  A    between atoms: _15  and  _17
REMARK    7  A    between atoms: _17  and  _18
REMARK    8  A    between atoms: _17  and  _20
REMARK    9  A    between atoms: _20  and  _21
REMARK   10  A    between atoms: _21  and  _22
REMARK   11  A    between atoms: _25  and  _27
REMARK   12  A    between atoms: _27  and  _28
REMARK   13  A    between atoms: _27  and  _30
REMARK   14  A    between atoms: _30  and  _31
REMARK   15  A    between atoms: _36  and  _38
REMARK   16  A    between atoms: _38  and  _39
REMARK   17  A    between atoms: _41  and  _43
REMARK   18  A    between atoms: _43  and  _44
REMARK   19  A    between atoms: _46  and  _48
REMARK   20  A    between atoms: _48  and  _49
REMARK   21  A    between atoms: _48  and  _51
REMARK   22  A    between atoms: _51  and  _52
REMARK   23  A    between atoms: _55  and  _57
REMARK   24  A    between atoms: _57  and  _58
REMARK   25  A    between atoms: _60  and  _62
REMARK   26  A    between atoms: _62  and  _63
REMARK   27  A    between atoms: _62  and  _65
REMARK   28  A    between atoms: _65  and  _66
REMARK   29  A    between atoms: _66  and  _67
REMARK   30  A    between atoms: _67  and  _68
REMARK   31  A    between atoms: _77  and  _79
REMARK   32  A    between atoms: _79  and  _80
REMARK   33  A    between atoms: _79  and  _82
REMARK   34  A    between atoms: _82  and  _83
REMARK   35  A    between atoms: _86  and  _88
REMARK   36  A    between atoms: _88  and  _89
REMARK   37  A    between atoms: _92  and  _94
REMARK   38  A    between atoms: _94  and  _95
REMARK   39  A    between atoms: _94  and  _97
REMARK   40  A    between atoms: _97  and  _98
REMARK   41  A    between atoms: _104  and  _106
REMARK   42  A    between atoms: _106  and  _107
REMARK   43  A    between atoms: _106  and  _109
REMARK   44  A    between atoms: _109  and  _110
REMARK   45  A    between atoms: _115  and  _117
REMARK   46  A    between atoms: _117  and  _118
REMARK   47  A    between atoms: _117  and  _120
REMARK   48  A    between atoms: _120  and  _121
REMARK   49  A    between atoms: _124  and  _126
REMARK   50  A    between atoms: _126  and  _127
REMARK   51  A    between atoms: _126  and  _129
REMARK   52  A    between atoms: _129  and  _130
REMARK   53  A    between atoms: _135  and  _137
REMARK   54  A    between atoms: _137  and  _138
REMARK   55  A    between atoms: _137  and  _140
REMARK   56  A    between atoms: _140  and  _141
REMARK   57  A    between atoms: _147  and  _149
REMARK   58  A    between atoms: _149  and  _150
REMARK   59  A    between atoms: _149  and  _152
REMARK   60  A    between atoms: _152  and  _153
REMARK   61  A    between atoms: _159  and  _161
REMARK   62  A    between atoms: _161  and  _162
REMARK   63  A    between atoms: _161  and  _164
REMARK   64  A    between atoms: _164  and  _165
REMARK   65  A    between atoms: _165  and  _166
REMARK   66  A    between atoms: _169  and  _171
REMARK   67  A    between atoms: _171  and  _172
REMARK   68  A    between atoms: _171  and  _174
REMARK   69  A    between atoms: _174  and  _175
REMARK   70  A    between atoms: _175  and  _176
REMARK   71  A    between atoms: _176  and  _177
REMARK   72  A    between atoms: _186  and  _188
REMARK   73  A    between atoms: _188  and  _189
REMARK   74  A    between atoms: _188  and  _191
REMARK   75  A    between atoms: _191  and  _192
REMARK   76  A    between atoms: _197  and  _199
REMARK   77  A    between atoms: _199  and  _200
REMARK   78  A    between atoms: _199  and  _202
REMARK   79  A    between atoms: _202  and  _203
REMARK   80  A    between atoms: _206  and  _208
REMARK   81  A    between atoms: _208  and  _209
REMARK   82  A    between atoms: _208  and  _211
REMARK   83  A    between atoms: _211  and  _212
REMARK   84  A    between atoms: _215  and  _217
REMARK   85  A    between atoms: _217  and  _218
REMARK   86  A    between atoms: _217  and  _220
REMARK   87  A    between atoms: _220  and  _221
REMARK   88  A    between atoms: _226  and  _228
REMARK   89  A    between atoms: _228  and  _229
REMARK   90  A    between atoms: _228  and  _231
REMARK   91  A    between atoms: _231  and  _232
REMARK   92  A    between atoms: _237  and  _238
REMARK   93  A    between atoms: _240  and  _242
REMARK   94  A    between atoms: _242  and  _243
REMARK   95  A    between atoms: _242  and  _245
REMARK   96  A    between atoms: _245  and  _246
REMARK   97  A    between atoms: _249  and  _251
REMARK   98  A    between atoms: _251  and  _252
REMARK   99  A    between atoms: _251  and  _254
REMARK  100  A    between atoms: _254  and  _255
REMARK  101  A    between atoms: _260  and  _262
REMARK  102  A    between atoms: _262  and  _263
REMARK  103  A    between atoms: _262  and  _265
REMARK  104  A    between atoms: _265  and  _266
REMARK  105  A    between atoms: _271  and  _273
REMARK  106  A    between atoms: _273  and  _274
REMARK  107  A    between atoms: _273  and  _276
REMARK  108  A    between atoms: _276  and  _277
REMARK  109  A    between atoms: _280  and  _282
REMARK  110  A    between atoms: _282  and  _283
REMARK  111  A    between atoms: _282  and  _285
REMARK  112  A    between atoms: _288  and  _290
REMARK  113  A    between atoms: _290  and  _291
REMARK  114  A    between atoms: _290  and  _293
REMARK  115  A    between atoms: _293  and  _294
REMARK  116  A    between atoms: _297  and  _299
REMARK  117  A    between atoms: _299  and  _300
REMARK  118  A    between atoms: _299  and  _302
REMARK  119  A    between atoms: _302  and  _303
REMARK  120  A    between atoms: _303  and  _304
REMARK  121  A    between atoms: _307  and  _309
REMARK  122  A    between atoms: _309  and  _310
REMARK  123  A    between atoms: _313  and  _315
REMARK  124  A    between atoms: _315  and  _316
REMARK  125  A    between atoms: _315  and  _318
REMARK  126  A    between atoms: _318  and  _319
REMARK  127  A    between atoms: _322  and  _324
REMARK  128  A    between atoms: _324  and  _325
REMARK  129  A    between atoms: _324  and  _327
REMARK  130  A    between atoms: _327  and  _328
REMARK  131  A    between atoms: _328  and  _329
REMARK  132  A    between atoms: _332  and  _334
REMARK  133  A    between atoms: _334  and  _335
REMARK  134  A    between atoms: _334  and  _337
REMARK  135  A    between atoms: _337  and  _338
REMARK  136  A    between atoms: _343  and  _345
REMARK  137  A    between atoms: _345  and  _346
REMARK  138  A    between atoms: _348  and  _350
REMARK  139  A    between atoms: _350  and  _351
REMARK  140  A    between atoms: _350  and  _353
REMARK  141  A    between atoms: _356  and  _358
REMARK  142  A    between atoms: _358  and  _359
REMARK  143  A    between atoms: _362  and  _364
REMARK  144  A    between atoms: _364  and  _365
REMARK  145  A    between atoms: _364  and  _367
REMARK  146  A    between atoms: _367  and  _368
REMARK  147  A    between atoms: _373  and  _375
REMARK  148  A    between atoms: _375  and  _376
REMARK  149  A    between atoms: _375  and  _378
REMARK  150  A    between atoms: _378  and  _379
REMARK  151  A    between atoms: _379  and  _380
REMARK  152  A    between atoms: _380  and  _381
REMARK  153  A    between atoms: _381  and  _382
REMARK  154  A    between atoms: _386  and  _388
REMARK  155  A    between atoms: _388  and  _389
REMARK  156  A    between atoms: _388  and  _391
REMARK  157  A    between atoms: _391  and  _392
REMARK  158  A    between atoms: _395  and  _397
REMARK  159  A    between atoms: _397  and  _398
REMARK  160  A    between atoms: _397  and  _400
REMARK  161  A    between atoms: _400  and  _401
REMARK  162  A    between atoms: _406  and  _408
REMARK  163  A    between atoms: _408  and  _409
REMARK  164  A    between atoms: _411  and  _413
REMARK  165  A    between atoms: _413  and  _414
REMARK  166  A    between atoms: _413  and  _416
REMARK  167  A    between atoms: _416  and  _417
REMARK  168  A    between atoms: _417  and  _418
REMARK  169  A    between atoms: _418  and  _419
REMARK  170  A    between atoms: _419  and  _420
REMARK  171  A    between atoms: _424  and  _426
REMARK  172  A    between atoms: _426  and  _427
REMARK  173  A    between atoms: _426  and  _429
REMARK  174  A    between atoms: _429  and  _430
REMARK  175  A    between atoms: _430  and  _431
REMARK  176  A    between atoms: _431  and  _432
REMARK  177  A    between atoms: _441  and  _443
REMARK  178  A    between atoms: _443  and  _444
REMARK  179  A    between atoms: _443  and  _446
REMARK  180  A    between atoms: _446  and  _447
REMARK  181  A    between atoms: _452  and  _454
REMARK  182  A    between atoms: _454  and  _455
REMARK  183  A    between atoms: _454  and  _457
REMARK  184  A    between atoms: _457  and  _458
REMARK  185  A    between atoms: _463  and  _464
REMARK  186  A    between atoms: _466  and  _468
REMARK  187  A    between atoms: _468  and  _469
REMARK  188  A    between atoms: _468  and  _471
REMARK  189  A    between atoms: _471  and  _472
REMARK  190  A    between atoms: _472  and  _473
REMARK  191  A    between atoms: _473  and  _474
REMARK  192  A    between atoms: _474  and  _475
REMARK  193  A    between atoms: _479  and  _481
REMARK  194  A    between atoms: _481  and  _482
REMARK  195  A    between atoms: _481  and  _484
REMARK  196  A    between atoms: _484  and  _485
REMARK  197  A    between atoms: _487  and  _489
REMARK  198  A    between atoms: _489  and  _490
REMARK  199  A    between atoms: _489  and  _492
REMARK  200  A    between atoms: _492  and  _493
REMARK  201  A    between atoms: _496  and  _498
REMARK  202  A    between atoms: _498  and  _499
REMARK  203  A    between atoms: _498  and  _501
REMARK  204  A    between atoms: _501  and  _502
REMARK  205  A    between atoms: _502  and  _503
REMARK  206  A    between atoms: _506  and  _508
REMARK  207  A    between atoms: _508  and  _509
REMARK  208  A    between atoms: _512  and  _514
REMARK  209  A    between atoms: _514  and  _515
REMARK  210  A    between atoms: _514  and  _517
REMARK  211  A    between atoms: _517  and  _518
REMARK  212  A    between atoms: _520  and  _522
REMARK  213  A    between atoms: _522  and  _523
REMARK  214  A    between atoms: _525  and  _527
REMARK  215  A    between atoms: _527  and  _528
REMARK  216  A    between atoms: _527  and  _530
REMARK  217  A    between atoms: _530  and  _531
REMARK  218  A    between atoms: _534  and  _536
REMARK  219  A    between atoms: _536  and  _537
REMARK  220  A    between atoms: _539  and  _541
REMARK  221  A    between atoms: _541  and  _542
REMARK  222  A    between atoms: _541  and  _544
REMARK  223  A    between atoms: _544  and  _545
REMARK  224  A    between atoms: _550  and  _552
REMARK  225  A    between atoms: _552  and  _553
REMARK  226  A    between atoms: _552  and  _555
REMARK  227  A    between atoms: _555  and  _556
REMARK  228  A    between atoms: _556  and  _557
REMARK  229  A    between atoms: _564  and  _565
REMARK  230  A    between atoms: _565  and  _581
REMARK  231  A    between atoms: _566  and  _568
REMARK  232  A    between atoms: _568  and  _569
REMARK  233  A    between atoms: _569  and  _570
REMARK  234  A    between atoms: _574  and  _576
REMARK  235  A    between atoms: _576  and  _577
REMARK  236  A    between atoms: _576  and  _584
REMARK  237  A    between atoms: _577  and  _578
REMARK  238  A    between atoms: _578  and  _579
REMARK  239  A    between atoms: _579  and  _580
REMARK  240  A    between atoms: _580  and  _581
REMARK  241  A    between atoms: _586  and  _588
REMARK  242  A    between atoms: _588  and  _589
REMARK  243  A    between atoms: _588  and  _591
REMARK  244  A    between atoms: _591  and  _592
REMARK  245  A    between atoms: _595  and  _597
REMARK  246  A    between atoms: _597  and  _598
REMARK  247  A    between atoms: _600  and  _602
REMARK  248  A    between atoms: _602  and  _603
REMARK  249  A    between atoms: _606  and  _608
REMARK  250  A    between atoms: _608  and  _609
REMARK  251  A    between atoms: _608  and  _611
REMARK  252  A    between atoms: _611  and  _612
REMARK  253  A    between atoms: _617  and  _618
REMARK                            x       y       z     vdW  Elec       q    Type
REMARK                         _______ _______ _______ _____ _____    ______ ____
ROOT
ATOM      1  C   GLY A   5      28.104  19.652  34.188  0.00  0.00    +0.243 C 
ATOM      2  O   GLY A   5      27.750  18.706  34.887  0.00  0.00    -0.273 OA
ATOM      3  N   ARG A   6      27.443  20.020  33.095  0.00  0.00    -0.297 N 
ATOM      4  H   ARG A   6      27.790  20.822  32.531  0.00  0.00    +0.150 HD
ENDROOT
BRANCH   3   5
ATOM      5  CA  ARG A   6      26.228  19.308  32.672  0.00  0.00    +0.149 C 
BRANCH   5   6
ATOM      6  C   ARG A   6      26.616  17.965  32.079  0.00  0.00    +0.241 C 
ATOM      7  O   ARG A   6      25.899  16.990  32.257  0.00  0.00    -0.273 OA
ATOM      8  N   LEU A   7      27.763  17.906  31.405  0.00  0.00    -0.297 N 
ATOM      9  H   LEU A   7      28.313  18.775  31.253  0.00  0.00    +0.150 HD
BRANCH   8  10
ATOM     10  CA  LEU A   7      28.258  16.642  30.877  0.00  0.00    +0.149 C 
BRANCH  10  11
ATOM     11  C   LEU A   7      28.400  15.619  31.990  0.00  0.00    +0.241 C 
ATOM     12  N   ALA A   8      28.992  16.038  33.113  0.00  0.00    -0.298 N 
ATOM     13  H   ALA A   8      29.351  17.013  33.162  0.00  0.00    +0.150 HD
ATOM     14  O   LEU A   7      27.978  14.476  31.834  0.00  0.00    -0.273 OA
BRANCH  12  15
ATOM     15  CA  ALA A   8      29.149  15.168  34.270  0.00  0.00    +0.137 C 
ATOM     16  CB  ALA A   8      29.890  15.890  35.389  0.00  0.00    +0.030 C 
BRANCH  15  17
ATOM     17  C   ALA A   8      27.791  14.657  34.763  0.00  0.00    +0.227 C 
ATOM     18  O   ALA A   8      27.673  13.493  35.132  0.00  0.00    -0.286 OA
ENDBRANCH  15  17
ENDBRANCH  12  15
ENDBRANCH  10  11
BRANCH  10  19
ATOM     19  CB  LEU A   7      29.592  16.805  30.149  0.00  0.00    +0.029 C 
BRANCH  19  20
ATOM     20  CG  LEU A   7      30.000  15.537  29.383  0.00  0.00    +0.002 C 
ATOM     21  CD2 LEU A   7      31.481  15.551  29.057  0.00  0.00    +0.000 C 
ATOM     22  CD1 LEU A   7      29.163  15.373  28.111  0.00  0.00    +0.000 C 
ENDBRANCH  19  20
ENDBRANCH  10  19
ENDBRANCH   8  10
ENDBRANCH   5   6
BRANCH   5  23
ATOM     23  CB  ARG A   6      25.387  20.176  31.714  0.00  0.00    +0.033 C 
BRANCH  23  24
ATOM     24  CG  ARG A   6      24.136  19.566  31.020  0.00  0.00    +0.045 C 
BRANCH  24  25
ATOM     25  CD  ARG A   6      23.524  18.266  31.606  0.00  0.00    +0.174 C 
BRANCH  25  26
ATOM     26  NE  ARG A   6      22.763  18.468  32.818  0.00  0.00    -0.265 N 
ATOM     27  CZ  ARG A   6      21.985  17.554  33.403  0.00  0.00    +0.342 C 
ATOM     28  NH2 ARG A   6      21.357  17.880  34.513  0.00  0.00    -0.292 N 
ATOM     29 HH21 ARG A   6      20.745  17.186  34.988  0.00  0.00    +0.255 HD
ATOM     30 HH22 ARG A   6      21.473  18.832  34.915  0.00  0.00    +0.255 HD
ATOM     31  NH1 ARG A   6      21.834  16.328  32.905  0.00  0.00    -0.292 N 
ATOM     32 HH11 ARG A   6      21.219  15.642  33.388  0.00  0.00    +0.255 HD
ATOM     33 HH12 ARG A   6      22.331  16.056  32.033  0.00  0.00    +0.255 HD
ATOM     34  HE  ARG A   6      22.827  19.402  33.272  0.00  0.00    +0.259 HD
ENDBRANCH  25  26
ENDBRANCH  24  25
ENDBRANCH  23  24
ENDBRANCH   5  23
ENDBRANCH   3   5
BRANCH   1  35
ATOM     35  CA  GLY A   5      29.323  20.488  34.566  0.00  0.00    +0.176 C 
BRANCH  35  37
ATOM     36  C   LEU A   4      30.771  20.047  32.659  0.00  0.00    +0.241 C 
ATOM     37  N   GLY A   5      30.110  20.924  33.412  0.00  0.00    -0.295 N 
ATOM     38  H   GLY A   5      30.154  21.936  33.176  0.00  0.00    +0.150 HD
ATOM     39  O   LEU A   4      30.789  18.841  32.894  0.00  0.00    -0.273 OA
BRANCH  36  40
ATOM     40  CA  LEU A   4      31.526  20.608  31.455  0.00  0.00    +0.149 C 
BRANCH  40  42
ATOM     41  C   GLY A   3      29.556  21.193  30.125  0.00  0.00    +0.243 C 
ATOM     42  N   LEU A   4      30.687  21.565  30.723  0.00  0.00    -0.297 N 
ATOM     43  H   LEU A   4      30.984  22.560  30.670  0.00  0.00    +0.150 HD
ATOM     44  O   GLY A   3      29.144  20.033  30.126  0.00  0.00    -0.273 OA
BRANCH  41  45
ATOM     45  CA  GLY A   3      28.777  22.279  29.413  0.00  0.00    +0.176 C 
BRANCH  45  48
ATOM     46  C   GLY A   2      28.047  23.640  31.312  0.00  0.00    +0.243 C 
ATOM     47  O   GLY A   2      27.718  22.683  32.006  0.00  0.00    -0.273 OA
ATOM     48  N   GLY A   3      28.662  23.534  30.137  0.00  0.00    -0.295 N 
ATOM     49  H   GLY A   3      29.080  24.389  29.717  0.00  0.00    +0.150 HD
BRANCH  46  50
ATOM     50  CA  GLY A   2      27.781  25.043  31.780  0.00  0.00    +0.176 C 
BRANCH  50  53
ATOM     51  C   ASN A   1      28.226  26.433  33.704  0.00  0.00    +0.239 C 
ATOM     52  O   ASN A   1      27.533  27.346  33.259  0.00  0.00    -0.274 OA
ATOM     53  N   GLY A   2      28.380  25.275  33.079  0.00  0.00    -0.296 N 
ATOM     54  H   GLY A   2      28.939  24.521  33.527  0.00  0.00    +0.150 HD
BRANCH  51  55
ATOM     55  CA  ASN A   1      28.991  26.594  35.007  0.00  0.00    +0.154 C 
BRANCH  55  56
ATOM     56  N   ASN A   1      29.044  25.385  35.818  0.00  0.00    -0.238 NA
ATOM     57  H   ASN A   1      29.810  24.703  35.645  0.00  0.00    +0.142 HD
ENDBRANCH  55  56
BRANCH  55  58
ATOM     58  CB  ASN A   1      30.415  27.039  34.693  0.00  0.00    +0.111 C 
BRANCH  58  59
ATOM     59  CG  ASN A   1      31.008  27.852  35.801  0.00  0.00    +0.221 C 
ATOM     60  ND2 ASN A   1      32.032  27.311  36.462  0.00  0.00    -0.329 N 
ATOM     61 HD21 ASN A   1      32.476  27.829  37.247  0.00  0.00    +0.145 HD
ATOM     62 HD22 ASN A   1      32.387  26.371  36.192  0.00  0.00    +0.145 HD
ATOM     63  OD1 ASN A   1      30.545  28.960  36.075  0.00  0.00    -0.275 OA
ENDBRANCH  58  59
ENDBRANCH  55  58
ENDBRANCH  51  55
ENDBRANCH  50  53
ENDBRANCH  46  50
ENDBRANCH  45  48
ENDBRANCH  41  45
ENDBRANCH  40  42
BRANCH  40  64
ATOM     64  CB  LEU A   4      32.851  21.256  31.889  0.00  0.00    +0.029 C 
BRANCH  64  65
ATOM     65  CG  LEU A   4      33.847  20.478  32.764  0.00  0.00    +0.002 C 
ATOM     66  CD2 LEU A   4      33.527  20.679  34.240  0.00  0.00    +0.000 C 
ATOM     67  CD1 LEU A   4      35.280  20.918  32.482  0.00  0.00    +0.000 C 
ENDBRANCH  64  65
ENDBRANCH  40  64
ENDBRANCH  36  40
ENDBRANCH  35  37
ENDBRANCH   1  35
TORSDOF 26
REMARK  Name = ../refined-set-2016/3g2h/3g2h_pocket.pdb
REMARK  253 active torsions:
REMARK  status: ('A' for Active; 'I' for Inactive)
REMARK    1  A    between atoms: _1  and  _3
REMARK    2  A    between atoms: _3  and  _4
REMARK    3  A    between atoms: _3  and  _6
REMARK    4  A    between atoms: _6  and  _7
REMARK    5  A    between atoms: _12  and  _13
REMARK    6  A    between atoms: _15  and  _17
REMARK    7  A    between atoms: _17  and  _18
REMARK    8  A    between atoms: _17  and  _20
REMARK    9  A    between atoms: _20  and  _21
REMARK   10  A    between atoms: _21  and  _22
REMARK   11  A    between atoms: _25  and  _27
REMARK   12  A    between atoms: _27  and  _28
REMARK   13  A    between atoms: _27  and  _30
REMARK   14  A    between atoms: _30  and  _31
REMARK   15  A    between atoms: _36  and  _38
REMARK   16  A    between atoms: _38  and  _39
REMARK   17  A    between atoms: _41  and  _43
REMARK   18  A    between atoms: _43  and  _44
REMARK   19  A    between atoms: _46  and  _48
REMARK   20  A    between atoms: _48  and  _49
REMARK   21  A    between atoms: _48  and  _51
REMARK   22  A    between atoms: _51  and  _52
REMARK   23  A    between atoms: _55  and  _57
REMARK   24  A    between atoms: _57  and  _58
REMARK   25  A    between atoms: _60  and  _62
REMARK   26  A    between atoms: _62  and  _63
REMARK   27  A    between atoms: _62  and  _65
REMARK   28  A    between atoms: _65  and  _66
REMARK   29  A    between atoms: _66  and  _67
REMARK   30  A    between atoms: _67  and  _68
REMARK   31  A    between atoms: _77  and  _79
REMARK   32  A    between atoms: _79  and  _80
REMARK   33  A    between atoms: _79  and  _82
REMARK   34  A    between atoms: _82  and  _83
REMARK   35  A    between atoms: _86  and  _88
REMARK   36  A    between atoms: _88  and  _89
REMARK   37  A    between atoms: _92  and  _94
REMARK   38  A    between atoms: _94  and  _95
REMARK   39  A    between atoms: _94  and  _97
REMARK   40  A    between atoms: _97  and  _98
REMARK   41  A    between atoms: _104  and  _106
REMARK   42  A    between atoms: _106  and  _107
REMARK   43  A    between atoms: _106  and  _109
REMARK   44  A    between atoms: _109  and  _110
REMARK   45  A    between atoms: _115  and  _117
REMARK   46  A    between atoms: _117  and  _118
REMARK   47  A    between atoms: _117  and  _120
REMARK   48  A    between atoms: _120  and  _121
REMARK   49  A    between atoms: _124  and  _126
REMARK   50  A    between atoms: _126  and  _127
REMARK   51  A    between atoms: _126  and  _129
REMARK   52  A    between atoms: _129  and  _130
REMARK   53  A    between atoms: _135  and  _137
REMARK   54  A    between atoms: _137  and  _138
REMARK   55  A    between atoms: _137  and  _140
REMARK   56  A    between atoms: _140  and  _141
REMARK   57  A    between atoms: _147  and  _149
REMARK   58  A    between atoms: _149  and  _150
REMARK   59  A    between atoms: _149  and  _152
REMARK   60  A    between atoms: _152  and  _153
REMARK   61  A    between atoms: _159  and  _161
REMARK   62  A    between atoms: _161  and  _162
REMARK   63  A    between atoms: _161  and  _164
REMARK   64  A    between atoms: _164  and  _165
REMARK   65  A    between atoms: _165  and  _166
REMARK   66  A    between atoms: _169  and  _171
REMARK   67  A    between atoms: _171  and  _172
REMARK   68  A    between atoms: _171  and  _174
REMARK   69  A    between atoms: _174  and  _175
REMARK   70  A    between atoms: _175  and  _176
REMARK   71  A    between atoms: _176  and  _177
REMARK   72  A    between atoms: _186  and  _188
REMARK   73  A    between atoms: _188  and  _189
REMARK   74  A    between atoms: _188  and  _191
REMARK   75  A    between atoms: _191  and  _192
REMARK   76  A    between atoms: _197  and  _199
REMARK   77  A    between atoms: _199  and  _200
REMARK   78  A    between atoms: _199  and  _202
REMARK   79  A    between atoms: _202  and  _203
REMARK   80  A    between atoms: _206  and  _208
REMARK   81  A    between atoms: _208  and  _209
REMARK   82  A    between atoms: _208  and  _211
REMARK   83  A    between atoms: _211  and  _212
REMARK   84  A    between atoms: _215  and  _217
REMARK   85  A    between atoms: _217  and  _218
REMARK   86  A    between atoms: _217  and  _220
REMARK   87  A    between atoms: _220  and  _221
REMARK   88  A    between atoms: _226  and  _228
REMARK   89  A    between atoms: _228  and  _229
REMARK   90  A    between atoms: _228  and  _231
REMARK   91  A    between atoms: _231  and  _232
REMARK   92  A    between atoms: _237  and  _238
REMARK   93  A    between atoms: _240  and  _242
REMARK   94  A    between atoms: _242  and  _243
REMARK   95  A    between atoms: _242  and  _245
REMARK   96  A    between atoms: _245  and  _246
REMARK   97  A    between atoms: _249  and  _251
REMARK   98  A    between atoms: _251  and  _252
REMARK   99  A    between atoms: _251  and  _254
REMARK  100  A    between atoms: _254  and  _255
REMARK  101  A    between atoms: _260  and  _262
REMARK  102  A    between atoms: _262  and  _263
REMARK  103  A    between atoms: _262  and  _265
REMARK  104  A    between atoms: _265  and  _266
REMARK  105  A    between atoms: _271  and  _273
REMARK  106  A    between atoms: _273  and  _274
REMARK  107  A    between atoms: _273  and  _276
REMARK  108  A    between atoms: _276  and  _277
REMARK  109  A    between atoms: _280  and  _282
REMARK  110  A    between atoms: _282  and  _283
REMARK  111  A    between atoms: _282  and  _285
REMARK  112  A    between atoms: _288  and  _290
REMARK  113  A    between atoms: _290  and  _291
REMARK  114  A    between atoms: _290  and  _293
REMARK  115  A    between atoms: _293  and  _294
REMARK  116  A    between atoms: _297  and  _299
REMARK  117  A    between atoms: _299  and  _300
REMARK  118  A    between atoms: _299  and  _302
REMARK  119  A    between atoms: _302  and  _303
REMARK  120  A    between atoms: _303  and  _304
REMARK  121  A    between atoms: _307  and  _309
REMARK  122  A    between atoms: _309  and  _310
REMARK  123  A    between atoms: _313  and  _315
REMARK  124  A    between atoms: _315  and  _316
REMARK  125  A    between atoms: _315  and  _318
REMARK  126  A    between atoms: _318  and  _319
REMARK  127  A    between atoms: _322  and  _324
REMARK  128  A    between atoms: _324  and  _325
REMARK  129  A    between atoms: _324  and  _327
REMARK  130  A    between atoms: _327  and  _328
REMARK  131  A    between atoms: _328  and  _329
REMARK  132  A    between atoms: _332  and  _334
REMARK  133  A    between atoms: _334  and  _335
REMARK  134  A    between atoms: _334  and  _337
REMARK  135  A    between atoms: _337  and  _338
REMARK  136  A    between atoms: _343  and  _345
REMARK  137  A    between atoms: _345  and  _346
REMARK  138  A    between atoms: _348  and  _350
REMARK  139  A    between atoms: _350  and  _351
REMARK  140  A    between atoms: _350  and  _353
REMARK  141  A    between atoms: _356  and  _358
REMARK  142  A    between atoms: _358  and  _359
REMARK  143  A    between atoms: _362  and  _364
REMARK  144  A    between atoms: _364  and  _365
REMARK  145  A    between atoms: _364  and  _367
REMARK  146  A    between atoms: _367  and  _368
REMARK  147  A    between atoms: _373  and  _375
REMARK  148  A    between atoms: _375  and  _376
REMARK  149  A    between atoms: _375  and  _378
REMARK  150  A    between atoms: _378  and  _379
REMARK  151  A    between atoms: _379  and  _380
REMARK  152  A    between atoms: _380  and  _381
REMARK  153  A    between atoms: _381  and  _382
REMARK  154  A    between atoms: _386  and  _388
REMARK  155  A    between atoms: _388  and  _389
REMARK  156  A    between atoms: _388  and  _391
REMARK  157  A    between atoms: _391  and  _392
REMARK  158  A    between atoms: _395  and  _397
REMARK  159  A    between atoms: _397  and  _398
REMARK  160  A    between atoms: _397  and  _400
REMARK  161  A    between atoms: _400  and  _401
REMARK  162  A    between atoms: _406  and  _408
REMARK  163  A    between atoms: _408  and  _409
REMARK  164  A    between atoms: _411  and  _413
REMARK  165  A    between atoms: _413  and  _414
REMARK  166  A    between atoms: _413  and  _416
REMARK  167  A    between atoms: _416  and  _417
REMARK  168  A    between atoms: _417  and  _418
REMARK  169  A    between atoms: _418  and  _419
REMARK  170  A    between atoms: _419  and  _420
REMARK  171  A    between atoms: _424  and  _426
REMARK  172  A    between atoms: _426  and  _427
REMARK  173  A    between atoms: _426  and  _429
REMARK  174  A    between atoms: _429  and  _430
REMARK  175  A    between atoms: _430  and  _431
REMARK  176  A    between atoms: _431  and  _432
REMARK  177  A    between atoms: _441  and  _443
REMARK  178  A    between atoms: _443  and  _444
REMARK  179  A    between atoms: _443  and  _446
REMARK  180  A    between atoms: _446  and  _447
REMARK  181  A    between atoms: _452  and  _454
REMARK  182  A    between atoms: _454  and  _455
REMARK  183  A    between atoms: _454  and  _457
REMARK  184  A    between atoms: _457  and  _458
REMARK  185  A    between atoms: _463  and  _464
REMARK  186  A    between atoms: _466  and  _468
REMARK  187  A    between atoms: _468  and  _469
REMARK  188  A    between atoms: _468  and  _471
REMARK  189  A    between atoms: _471  and  _472
REMARK  190  A    between atoms: _472  and  _473
REMARK  191  A    between atoms: _473  and  _474
REMARK  192  A    between atoms: _474  and  _475
REMARK  193  A    between atoms: _479  and  _481
REMARK  194  A    between atoms: _481  and  _482
REMARK  195  A    between atoms: _481  and  _484
REMARK  196  A    between atoms: _484  and  _485
REMARK  197  A    between atoms: _487  and  _489
REMARK  198  A    between atoms: _489  and  _490
REMARK  199  A    between atoms: _489  and  _492
REMARK  200  A    between atoms: _492  and  _493
REMARK  201  A    between atoms: _496  and  _498
REMARK  202  A    between atoms: _498  and  _499
REMARK  203  A    between atoms: _498  and  _501
REMARK  204  A    between atoms: _501  and  _502
REMARK  205  A    between atoms: _502  and  _503
REMARK  206  A    between atoms: _506  and  _508
REMARK  207  A    between atoms: _508  and  _509
REMARK  208  A    between atoms: _512  and  _514
REMARK  209  A    between atoms: _514  and  _515
REMARK  210  A    between atoms: _514  and  _517
REMARK  211  A    between atoms: _517  and  _518
REMARK  212  A    between atoms: _520  and  _522
REMARK  213  A    between atoms: _522  and  _523
REMARK  214  A    between atoms: _525  and  _527
REMARK  215  A    between atoms: _527  and  _528
REMARK  216  A    between atoms: _527  and  _530
REMARK  217  A    between atoms: _530  and  _531
REMARK  218  A    between atoms: _534  and  _536
REMARK  219  A    between atoms: _536  and  _537
REMARK  220  A    between atoms: _539  and  _541
REMARK  221  A    between atoms: _541  and  _542
REMARK  222  A    between atoms: _541  and  _544
REMARK  223  A    between atoms: _544  and  _545
REMARK  224  A    between atoms: _550  and  _552
REMARK  225  A    between atoms: _552  and  _553
REMARK  226  A    between atoms: _552  and  _555
REMARK  227  A    between atoms: _555  and  _556
REMARK  228  A    between atoms: _556  and  _557
REMARK  229  A    between atoms: _564  and  _565
REMARK  230  A    between atoms: _565  and  _581
REMARK  231  A    between atoms: _566  and  _568
REMARK  232  A    between atoms: _568  and  _569
REMARK  233  A    between atoms: _569  and  _570
REMARK  234  A    between atoms: _574  and  _576
REMARK  235  A    between atoms: _576  and  _577
REMARK  236  A    between atoms: _576  and  _584
REMARK  237  A    between atoms: _577  and  _578
REMARK  238  A    between atoms: _578  and  _579
REMARK  239  A    between atoms: _579  and  _580
REMARK  240  A    between atoms: _580  and  _581
REMARK  241  A    between atoms: _586  and  _588
REMARK  242  A    between atoms: _588  and  _589
REMARK  243  A    between atoms: _588  and  _591
REMARK  244  A    between atoms: _591  and  _592
REMARK  245  A    between atoms: _595  and  _597
REMARK  246  A    between atoms: _597  and  _598
REMARK  247  A    between atoms: _600  and  _602
REMARK  248  A    between atoms: _602  and  _603
REMARK  249  A    between atoms: _606  and  _608
REMARK  250  A    between atoms: _608  and  _609
REMARK  251  A    between atoms: _608  and  _611
REMARK  252  A    between atoms: _611  and  _612
REMARK  253  A    between atoms: _617  and  _618
REMARK                            x       y       z     vdW  Elec       q    Type
REMARK                         _______ _______ _______ _____ _____    ______ ____
ROOT
ATOM      1  CB  PHE A   1      28.709  11.383  32.570  0.00  0.00    +0.051 C 
ENDROOT
BRANCH   1   2
ATOM      2  CG  PHE A   1      29.378  11.597  31.230  0.00  0.00    -0.020 A 
ATOM      3  CD2 PHE A   1      30.752  11.777  31.155  0.00  0.00    -0.004 A 
ATOM      4  CE2 PHE A   1      31.381  11.966  29.924  0.00  0.00    -0.000 A 
ATOM      5  CZ  PHE A   1      30.635  11.986  28.760  0.00  0.00    -0.000 A 
ATOM      6  CE1 PHE A   1      29.253  11.809  28.818  0.00  0.00    -0.000 A 
ATOM      7  CD1 PHE A   1      28.636  11.622  30.051  0.00  0.00    -0.004 A 
ENDBRANCH   1   2
BRANCH   1   8
ATOM      8  CA  PHE A   1      27.234  10.973  32.470  0.00  0.00    +0.137 C 
BRANCH   8   9
ATOM      9  N   PHE A   1      26.399  12.153  32.308  0.00  0.00    -0.239 NA
ATOM     10  H   PHE A   1      26.845  13.089  32.385  0.00  0.00    +0.142 HD
ENDBRANCH   8   9
BRANCH   8  11
ATOM     11  C   PHE A   1      26.817  10.140  33.676  0.00  0.00    +0.224 C 
ATOM     12  O   PHE A   1      26.757   8.921  33.590  0.00  0.00    -0.287 OA
ENDBRANCH   8  11
ENDBRANCH   1   8
TORSDOF 4
REMARK  Name = ../refined-set-2016/3g2h/3g2h_pocket.pdb
REMARK  253 active torsions:
REMARK  status: ('A' for Active; 'I' for Inactive)
REMARK    1  A    between atoms: _1  and  _3
REMARK    2  A    between atoms: _3  and  _4
REMARK    3  A    between atoms: _3  and  _6
REMARK    4  A    between atoms: _6  and  _7
REMARK    5  A    between atoms: _12  and  _13
REMARK    6  A    between atoms: _15  and  _17
REMARK    7  A    between atoms: _17  and  _18
REMARK    8  A    between atoms: _17  and  _20
REMARK    9  A    between atoms: _20  and  _21
REMARK   10  A    between atoms: _21  and  _22
REMARK   11  A    between atoms: _25  and  _27
REMARK   12  A    between atoms: _27  and  _28
REMARK   13  A    between atoms: _27  and  _30
REMARK   14  A    between atoms: _30  and  _31
REMARK   15  A    between atoms: _36  and  _38
REMARK   16  A    between atoms: _38  and  _39
REMARK   17  A    between atoms: _41  and  _43
REMARK   18  A    between atoms: _43  and  _44
REMARK   19  A    between atoms: _46  and  _48
REMARK   20  A    between atoms: _48  and  _49
REMARK   21  A    between atoms: _48  and  _51
REMARK   22  A    between atoms: _51  and  _52
REMARK   23  A    between atoms: _55  and  _57
REMARK   24  A    between atoms: _57  and  _58
REMARK   25  A    between atoms: _60  and  _62
REMARK   26  A    between atoms: _62  and  _63
REMARK   27  A    between atoms: _62  and  _65
REMARK   28  A    between atoms: _65  and  _66
REMARK   29  A    between atoms: _66  and  _67
REMARK   30  A    between atoms: _67  and  _68
REMARK   31  A    between atoms: _77  and  _79
REMARK   32  A    between atoms: _79  and  _80
REMARK   33  A    between atoms: _79  and  _82
REMARK   34  A    between atoms: _82  and  _83
REMARK   35  A    between atoms: _86  and  _88
REMARK   36  A    between atoms: _88  and  _89
REMARK   37  A    between atoms: _92  and  _94
REMARK   38  A    between atoms: _94  and  _95
REMARK   39  A    between atoms: _94  and  _97
REMARK   40  A    between atoms: _97  and  _98
REMARK   41  A    between atoms: _104  and  _106
REMARK   42  A    between atoms: _106  and  _107
REMARK   43  A    between atoms: _106  and  _109
REMARK   44  A    between atoms: _109  and  _110
REMARK   45  A    between atoms: _115  and  _117
REMARK   46  A    between atoms: _117  and  _118
REMARK   47  A    between atoms: _117  and  _120
REMARK   48  A    between atoms: _120  and  _121
REMARK   49  A    between atoms: _124  and  _126
REMARK   50  A    between atoms: _126  and  _127
REMARK   51  A    between atoms: _126  and  _129
REMARK   52  A    between atoms: _129  and  _130
REMARK   53  A    between atoms: _135  and  _137
REMARK   54  A    between atoms: _137  and  _138
REMARK   55  A    between atoms: _137  and  _140
REMARK   56  A    between atoms: _140  and  _141
REMARK   57  A    between atoms: _147  and  _149
REMARK   58  A    between atoms: _149  and  _150
REMARK   59  A    between atoms: _149  and  _152
REMARK   60  A    between atoms: _152  and  _153
REMARK   61  A    between atoms: _159  and  _161
REMARK   62  A    between atoms: _161  and  _162
REMARK   63  A    between atoms: _161  and  _164
REMARK   64  A    between atoms: _164  and  _165
REMARK   65  A    between atoms: _165  and  _166
REMARK   66  A    between atoms: _169  and  _171
REMARK   67  A    between atoms: _171  and  _172
REMARK   68  A    between atoms: _171  and  _174
REMARK   69  A    between atoms: _174  and  _175
REMARK   70  A    between atoms: _175  and  _176
REMARK   71  A    between atoms: _176  and  _177
REMARK   72  A    between atoms: _186  and  _188
REMARK   73  A    between atoms: _188  and  _189
REMARK   74  A    between atoms: _188  and  _191
REMARK   75  A    between atoms: _191  and  _192
REMARK   76  A    between atoms: _197  and  _199
REMARK   77  A    between atoms: _199  and  _200
REMARK   78  A    between atoms: _199  and  _202
REMARK   79  A    between atoms: _202  and  _203
REMARK   80  A    between atoms: _206  and  _208
REMARK   81  A    between atoms: _208  and  _209
REMARK   82  A    between atoms: _208  and  _211
REMARK   83  A    between atoms: _211  and  _212
REMARK   84  A    between atoms: _215  and  _217
REMARK   85  A    between atoms: _217  and  _218
REMARK   86  A    between atoms: _217  and  _220
REMARK   87  A    between atoms: _220  and  _221
REMARK   88  A    between atoms: _226  and  _228
REMARK   89  A    between atoms: _228  and  _229
REMARK   90  A    between atoms: _228  and  _231
REMARK   91  A    between atoms: _231  and  _232
REMARK   92  A    between atoms: _237  and  _238
REMARK   93  A    between atoms: _240  and  _242
REMARK   94  A    between atoms: _242  and  _243
REMARK   95  A    between atoms: _242  and  _245
REMARK   96  A    between atoms: _245  and  _246
REMARK   97  A    between atoms: _249  and  _251
REMARK   98  A    between atoms: _251  and  _252
REMARK   99  A    between atoms: _251  and  _254
REMARK  100  A    between atoms: _254  and  _255
REMARK  101  A    between atoms: _260  and  _262
REMARK  102  A    between atoms: _262  and  _263
REMARK  103  A    between atoms: _262  and  _265
REMARK  104  A    between atoms: _265  and  _266
REMARK  105  A    between atoms: _271  and  _273
REMARK  106  A    between atoms: _273  and  _274
REMARK  107  A    between atoms: _273  and  _276
REMARK  108  A    between atoms: _276  and  _277
REMARK  109  A    between atoms: _280  and  _282
REMARK  110  A    between atoms: _282  and  _283
REMARK  111  A    between atoms: _282  and  _285
REMARK  112  A    between atoms: _288  and  _290
REMARK  113  A    between atoms: _290  and  _291
REMARK  114  A    between atoms: _290  and  _293
REMARK  115  A    between atoms: _293  and  _294
REMARK  116  A    between atoms: _297  and  _299
REMARK  117  A    between atoms: _299  and  _300
REMARK  118  A    between atoms: _299  and  _302
REMARK  119  A    between atoms: _302  and  _303
REMARK  120  A    between atoms: _303  and  _304
REMARK  121  A    between atoms: _307  and  _309
REMARK  122  A    between atoms: _309  and  _310
REMARK  123  A    between atoms: _313  and  _315
REMARK  124  A    between atoms: _315  and  _316
REMARK  125  A    between atoms: _315  and  _318
REMARK  126  A    between atoms: _318  and  _319
REMARK  127  A    between atoms: _322  and  _324
REMARK  128  A    between atoms: _324  and  _325
REMARK  129  A    between atoms: _324  and  _327
REMARK  130  A    between atoms: _327  and  _328
REMARK  131  A    between atoms: _328  and  _329
REMARK  132  A    between atoms: _332  and  _334
REMARK  133  A    between atoms: _334  and  _335
REMARK  134  A    between atoms: _334  and  _337
REMARK  135  A    between atoms: _337  and  _338
REMARK  136  A    between atoms: _343  and  _345
REMARK  137  A    between atoms: _345  and  _346
REMARK  138  A    between atoms: _348  and  _350
REMARK  139  A    between atoms: _350  and  _351
REMARK  140  A    between atoms: _350  and  _353
REMARK  141  A    between atoms: _356  and  _358
REMARK  142  A    between atoms: _358  and  _359
REMARK  143  A    between atoms: _362  and  _364
REMARK  144  A    between atoms: _364  and  _365
REMARK  145  A    between atoms: _364  and  _367
REMARK  146  A    between atoms: _367  and  _368
REMARK  147  A    between atoms: _373  and  _375
REMARK  148  A    between atoms: _375  and  _376
REMARK  149  A    between atoms: _375  and  _378
REMARK  150  A    between atoms: _378  and  _379
REMARK  151  A    between atoms: _379  and  _380
REMARK  152  A    between atoms: _380  and  _381
REMARK  153  A    between atoms: _381  and  _382
REMARK  154  A    between atoms: _386  and  _388
REMARK  155  A    between atoms: _388  and  _389
REMARK  156  A    between atoms: _388  and  _391
REMARK  157  A    between atoms: _391  and  _392
REMARK  158  A    between atoms: _395  and  _397
REMARK  159  A    between atoms: _397  and  _398
REMARK  160  A    between atoms: _397  and  _400
REMARK  161  A    between atoms: _400  and  _401
REMARK  162  A    between atoms: _406  and  _408
REMARK  163  A    between atoms: _408  and  _409
REMARK  164  A    between atoms: _411  and  _413
REMARK  165  A    between atoms: _413  and  _414
REMARK  166  A    between atoms: _413  and  _416
REMARK  167  A    between atoms: _416  and  _417
REMARK  168  A    between atoms: _417  and  _418
REMARK  169  A    between atoms: _418  and  _419
REMARK  170  A    between atoms: _419  and  _420
REMARK  171  A    between atoms: _424  and  _426
REMARK  172  A    between atoms: _426  and  _427
REMARK  173  A    between atoms: _426  and  _429
REMARK  174  A    between atoms: _429  and  _430
REMARK  175  A    between atoms: _430  and  _431
REMARK  176  A    between atoms: _431  and  _432
REMARK  177  A    between atoms: _441  and  _443
REMARK  178  A    between atoms: _443  and  _444
REMARK  179  A    between atoms: _443  and  _446
REMARK  180  A    between atoms: _446  and  _447
REMARK  181  A    between atoms: _452  and  _454
REMARK  182  A    between atoms: _454  and  _455
REMARK  183  A    between atoms: _454  and  _457
REMARK  184  A    between atoms: _457  and  _458
REMARK  185  A    between atoms: _463  and  _464
REMARK  186  A    between atoms: _466  and  _468
REMARK  187  A    between atoms: _468  and  _469
REMARK  188  A    between atoms: _468  and  _471
REMARK  189  A    between atoms: _471  and  _472
REMARK  190  A    between atoms: _472  and  _473
REMARK  191  A    between atoms: _473  and  _474
REMARK  192  A    between atoms: _474  and  _475
REMARK  193  A    between atoms: _479  and  _481
REMARK  194  A    between atoms: _481  and  _482
REMARK  195  A    between atoms: _481  and  _484
REMARK  196  A    between atoms: _484  and  _485
REMARK  197  A    between atoms: _487  and  _489
REMARK  198  A    between atoms: _489  and  _490
REMARK  199  A    between atoms: _489  and  _492
REMARK  200  A    between atoms: _492  and  _493
REMARK  201  A    between atoms: _496  and  _498
REMARK  202  A    between atoms: _498  and  _499
REMARK  203  A    between atoms: _498  and  _501
REMARK  204  A    between atoms: _501  and  _502
REMARK  205  A    between atoms: _502  and  _503
REMARK  206  A    between atoms: _506  and  _508
REMARK  207  A    between atoms: _508  and  _509
REMARK  208  A    between atoms: _512  and  _514
REMARK  209  A    between atoms: _514  and  _515
REMARK  210  A    between atoms: _514  and  _517
REMARK  211  A    between atoms: _517  and  _518
REMARK  212  A    between atoms: _520  and  _522
REMARK  213  A    between atoms: _522  and  _523
REMARK  214  A    between atoms: _525  and  _527
REMARK  215  A    between atoms: _527  and  _528
REMARK  216  A    between atoms: _527  and  _530
REMARK  217  A    between atoms: _530  and  _531
REMARK  218  A    between atoms: _534  and  _536
REMARK  219  A    between atoms: _536  and  _537
REMARK  220  A    between atoms: _539  and  _541
REMARK  221  A    between atoms: _541  and  _542
REMARK  222  A    between atoms: _541  and  _544
REMARK  223  A    between atoms: _544  and  _545
REMARK  224  A    between atoms: _550  and  _552
REMARK  225  A    between atoms: _552  and  _553
REMARK  226  A    between atoms: _552  and  _555
REMARK  227  A    between atoms: _555  and  _556
REMARK  228  A    between atoms: _556  and  _557
REMARK  229  A    between atoms: _564  and  _565
REMARK  230  A    between atoms: _565  and  _581
REMARK  231  A    between atoms: _566  and  _568
REMARK  232  A    between atoms: _568  and  _569
REMARK  233  A    between atoms: _569  and  _570
REMARK  234  A    between atoms: _574  and  _576
REMARK  235  A    between atoms: _576  and  _577
REMARK  236  A    between atoms: _576  and  _584
REMARK  237  A    between atoms: _577  and  _578
REMARK  238  A    between atoms: _578  and  _579
REMARK  239  A    between atoms: _579  and  _580
REMARK  240  A    between atoms: _580  and  _581
REMARK  241  A    between atoms: _586  and  _588
REMARK  242  A    between atoms: _588  and  _589
REMARK  243  A    between atoms: _588  and  _591
REMARK  244  A    between atoms: _591  and  _592
REMARK  245  A    between atoms: _595  and  _597
REMARK  246  A    between atoms: _597  and  _598
REMARK  247  A    between atoms: _600  and  _602
REMARK  248  A    between atoms: _602  and  _603
REMARK  249  A    between atoms: _606  and  _608
REMARK  250  A    between atoms: _608  and  _609
REMARK  251  A    between atoms: _608  and  _611
REMARK  252  A    between atoms: _611  and  _612
REMARK  253  A    between atoms: _617  and  _618
REMARK                            x       y       z     vdW  Elec       q    Type
REMARK                         _______ _______ _______ _____ _____    ______ ____
ROOT
ATOM      1  C   ASN A   3      38.206  31.783  30.489  0.00  0.00    +0.241 C 
ATOM      2  N   PHE A   4      38.637  32.102  31.705  0.00  0.00    -0.297 N 
ATOM      3  H   PHE A   4      37.979  32.042  32.508  0.00  0.00    +0.150 HD
ATOM      4  O   ASN A   3      38.961  31.611  29.529  0.00  0.00    -0.273 OA
ENDROOT
BRANCH   2   5
ATOM      5  CA  PHE A   4      40.005  32.533  31.942  0.00  0.00    +0.153 C 
BRANCH   5   6
ATOM      6  C   PHE A   4      40.515  31.899  33.221  0.00  0.00    +0.241 C 
ATOM      7  O   PHE A   4      39.921  32.073  34.290  0.00  0.00    -0.273 OA
ATOM      8  N   PHE A   5      41.609  31.151  33.112  0.00  0.00    -0.297 N 
ATOM      9  H   PHE A   5      42.055  31.021  32.182  0.00  0.00    +0.150 HD
BRANCH   8  10
ATOM     10  CA  PHE A   5      42.186  30.514  34.285  0.00  0.00    +0.153 C 
BRANCH  10  11
ATOM     11  C   PHE A   5      42.687  31.548  35.287  0.00  0.00    +0.241 C 
ATOM     12  N   GLU A   6      42.151  31.454  36.499  0.00  0.00    -0.298 N 
ATOM     13  H   GLU A   6      41.432  30.723  36.669  0.00  0.00    +0.150 HD
ATOM     14  O   PHE A   5      43.524  32.401  34.970  0.00  0.00    -0.273 OA
BRANCH  12  15
ATOM     15  CA  GLU A   6      42.525  32.326  37.594  0.00  0.00    +0.137 C 
BRANCH  15  16
ATOM     16  C   GLU A   6      43.298  31.475  38.591  0.00  0.00    +0.227 C 
ATOM     17  O   GLU A   6      42.742  30.546  39.195  0.00  0.00    -0.286 OA
ENDBRANCH  15  16
BRANCH  15  18
ATOM     18  CB  GLU A   6      41.262  32.885  38.244  0.00  0.00    +0.039 C 
BRANCH  18  19
ATOM     19  CG  GLU A   6      41.295  34.362  38.574  0.00  0.00    +0.116 C 
BRANCH  19  20
ATOM     20  CD  GLU A   6      39.923  34.869  38.984  0.00  0.00    +0.365 C 
ATOM     21  OE2 GLU A   6      39.749  35.248  40.166  0.00  0.00    -0.246 OA
ATOM     22  OE1 GLU A   6      39.008  34.863  38.127  0.00  0.00    -0.246 OA
ENDBRANCH  19  20
ENDBRANCH  18  19
ENDBRANCH  15  18
ENDBRANCH  12  15
ENDBRANCH  10  11
BRANCH  10  23
ATOM     23  CB  PHE A   5      43.301  29.530  33.915  0.00  0.00    +0.055 C 
BRANCH  23  24
ATOM     24  CG  PHE A   5      44.099  29.050  35.101  0.00  0.00    -0.020 A 
ATOM     25  CD2 PHE A   5      43.524  28.211  36.049  0.00  0.00    -0.004 A 
ATOM     26  CE2 PHE A   5      44.253  27.775  37.147  0.00  0.00    -0.000 A 
ATOM     27  CZ  PHE A   5      45.573  28.183  37.308  0.00  0.00    -0.000 A 
ATOM     28  CE1 PHE A   5      46.154  29.027  36.374  0.00  0.00    -0.000 A 
ATOM     29  CD1 PHE A   5      45.419  29.458  35.279  0.00  0.00    -0.004 A 
ENDBRANCH  23  24
ENDBRANCH  10  23
ENDBRANCH   8  10
ENDBRANCH   5   6
BRANCH   5  30
ATOM     30  CB  PHE A   4      40.054  34.063  32.040  0.00  0.00    +0.055 C 
BRANCH  30  31
ATOM     31  CG  PHE A   4      41.439  34.640  31.947  0.00  0.00    -0.020 A 
ATOM     32  CD2 PHE A   4      42.168  34.922  33.098  0.00  0.00    -0.004 A 
ATOM     33  CE2 PHE A   4      43.459  35.465  33.018  0.00  0.00    -0.000 A 
ATOM     34  CZ  PHE A   4      44.025  35.736  31.773  0.00  0.00    -0.000 A 
ATOM     35  CE1 PHE A   4      43.302  35.466  30.611  0.00  0.00    -0.000 A 
ATOM     36  CD1 PHE A   4      42.011  34.924  30.704  0.00  0.00    -0.004 A 
ENDBRANCH  30  31
ENDBRANCH   5  30
ENDBRANCH   2   5
BRANCH   1  37
ATOM     37  CA  ASN A   3      36.697  31.632  30.329  0.00  0.00    +0.158 C 
BRANCH  37  39
ATOM     38  C   ASP A   2      35.421  29.872  31.445  0.00  0.00    +0.241 C 
ATOM     39  N   ASN A   3      36.039  31.051  31.495  0.00  0.00    -0.297 N 
ATOM     40  H   ASN A   3      36.053  31.574  32.394  0.00  0.00    +0.150 HD
ATOM     41  O   ASP A   2      35.432  29.147  30.447  0.00  0.00    -0.273 OA
BRANCH  38  42
ATOM     42  CA  ASP A   2      34.669  29.446  32.713  0.00  0.00    +0.160 C 
BRANCH  42  45
ATOM     43  C   ASN A   1      35.307  30.688  34.725  0.00  0.00    +0.239 C 
ATOM     44  O   ASN A   1      36.237  29.928  34.992  0.00  0.00    -0.274 OA
ATOM     45  N   ASP A   2      34.521  30.545  33.660  0.00  0.00    -0.297 N 
ATOM     46  H   ASP A   2      33.770  31.246  33.497  0.00  0.00    +0.150 HD
BRANCH  43  47
ATOM     47  CA  ASN A   1      34.983  31.872  35.623  0.00  0.00    +0.154 C 
BRANCH  47  48
ATOM     48  N   ASN A   1      34.158  31.475  36.762  0.00  0.00    -0.238 NA
ATOM     49  H   ASN A   1      34.619  31.195  37.651  0.00  0.00    +0.142 HD
ENDBRANCH  47  48
BRANCH  47  50
ATOM     50  CB  ASN A   1      36.261  32.607  36.070  0.00  0.00    +0.111 C 
BRANCH  50  51
ATOM     51  CG  ASN A   1      37.129  31.775  37.005  0.00  0.00    +0.221 C 
ATOM     52  OD1 ASN A   1      36.629  31.112  37.913  0.00  0.00    -0.275 OA
ATOM     53  ND2 ASN A   1      38.442  31.811  36.784  0.00  0.00    -0.329 N 
ATOM     54 HD21 ASN A   1      39.087  31.265  37.391  0.00  0.00    +0.145 HD
ATOM     55 HD22 ASN A   1      38.823  32.385  36.005  0.00  0.00    +0.145 HD
ENDBRANCH  50  51
ENDBRANCH  47  50
ENDBRANCH  43  47
ENDBRANCH  42  45
BRANCH  42  56
ATOM     56  CB  ASP A   2      33.289  28.907  32.338  0.00  0.00    +0.143 C 
BRANCH  56  57
ATOM     57  CG  ASP A   2      32.448  29.920  31.581  0.00  0.00    +0.367 C 
ATOM     58  OD2 ASP A   2      32.705  31.144  31.685  0.00  0.00    -0.246 OA
ATOM     59  OD1 ASP A   2      31.518  29.487  30.870  0.00  0.00    -0.246 OA
ENDBRANCH  56  57
ENDBRANCH  42  56
ENDBRANCH  38  42
ENDBRANCH  37  39
BRANCH  37  60
ATOM     60  CB  ASN A   3      36.073  32.995  29.991  0.00  0.00    +0.114 C 
BRANCH  60  61
ATOM     61  CG  ASN A   3      36.358  34.061  31.050  0.00  0.00    +0.222 C 
ATOM     62  OD1 ASN A   3      35.919  33.957  32.200  0.00  0.00    -0.275 OA
ATOM     63  ND2 ASN A   3      37.093  35.098  30.656  0.00  0.00    -0.329 N 
ATOM     64 HD21 ASN A   3      37.318  35.861  31.326  0.00  0.00    +0.145 HD
ATOM     65 HD22 ASN A   3      37.443  35.146  29.678  0.00  0.00    +0.145 HD
ENDBRANCH  60  61
ENDBRANCH  37  60
ENDBRANCH   1  37
TORSDOF 25
REMARK  Name = ../refined-set-2016/3g2h/3g2h_pocket.pdb
REMARK  253 active torsions:
REMARK  status: ('A' for Active; 'I' for Inactive)
REMARK    1  A    between atoms: _1  and  _3
REMARK    2  A    between atoms: _3  and  _4
REMARK    3  A    between atoms: _3  and  _6
REMARK    4  A    between atoms: _6  and  _7
REMARK    5  A    between atoms: _12  and  _13
REMARK    6  A    between atoms: _15  and  _17
REMARK    7  A    between atoms: _17  and  _18
REMARK    8  A    between atoms: _17  and  _20
REMARK    9  A    between atoms: _20  and  _21
REMARK   10  A    between atoms: _21  and  _22
REMARK   11  A    between atoms: _25  and  _27
REMARK   12  A    between atoms: _27  and  _28
REMARK   13  A    between atoms: _27  and  _30
REMARK   14  A    between atoms: _30  and  _31
REMARK   15  A    between atoms: _36  and  _38
REMARK   16  A    between atoms: _38  and  _39
REMARK   17  A    between atoms: _41  and  _43
REMARK   18  A    between atoms: _43  and  _44
REMARK   19  A    between atoms: _46  and  _48
REMARK   20  A    between atoms: _48  and  _49
REMARK   21  A    between atoms: _48  and  _51
REMARK   22  A    between atoms: _51  and  _52
REMARK   23  A    between atoms: _55  and  _57
REMARK   24  A    between atoms: _57  and  _58
REMARK   25  A    between atoms: _60  and  _62
REMARK   26  A    between atoms: _62  and  _63
REMARK   27  A    between atoms: _62  and  _65
REMARK   28  A    between atoms: _65  and  _66
REMARK   29  A    between atoms: _66  and  _67
REMARK   30  A    between atoms: _67  and  _68
REMARK   31  A    between atoms: _77  and  _79
REMARK   32  A    between atoms: _79  and  _80
REMARK   33  A    between atoms: _79  and  _82
REMARK   34  A    between atoms: _82  and  _83
REMARK   35  A    between atoms: _86  and  _88
REMARK   36  A    between atoms: _88  and  _89
REMARK   37  A    between atoms: _92  and  _94
REMARK   38  A    between atoms: _94  and  _95
REMARK   39  A    between atoms: _94  and  _97
REMARK   40  A    between atoms: _97  and  _98
REMARK   41  A    between atoms: _104  and  _106
REMARK   42  A    between atoms: _106  and  _107
REMARK   43  A    between atoms: _106  and  _109
REMARK   44  A    between atoms: _109  and  _110
REMARK   45  A    between atoms: _115  and  _117
REMARK   46  A    between atoms: _117  and  _118
REMARK   47  A    between atoms: _117  and  _120
REMARK   48  A    between atoms: _120  and  _121
REMARK   49  A    between atoms: _124  and  _126
REMARK   50  A    between atoms: _126  and  _127
REMARK   51  A    between atoms: _126  and  _129
REMARK   52  A    between atoms: _129  and  _130
REMARK   53  A    between atoms: _135  and  _137
REMARK   54  A    between atoms: _137  and  _138
REMARK   55  A    between atoms: _137  and  _140
REMARK   56  A    between atoms: _140  and  _141
REMARK   57  A    between atoms: _147  and  _149
REMARK   58  A    between atoms: _149  and  _150
REMARK   59  A    between atoms: _149  and  _152
REMARK   60  A    between atoms: _152  and  _153
REMARK   61  A    between atoms: _159  and  _161
REMARK   62  A    between atoms: _161  and  _162
REMARK   63  A    between atoms: _161  and  _164
REMARK   64  A    between atoms: _164  and  _165
REMARK   65  A    between atoms: _165  and  _166
REMARK   66  A    between atoms: _169  and  _171
REMARK   67  A    between atoms: _171  and  _172
REMARK   68  A    between atoms: _171  and  _174
REMARK   69  A    between atoms: _174  and  _175
REMARK   70  A    between atoms: _175  and  _176
REMARK   71  A    between atoms: _176  and  _177
REMARK   72  A    between atoms: _186  and  _188
REMARK   73  A    between atoms: _188  and  _189
REMARK   74  A    between atoms: _188  and  _191
REMARK   75  A    between atoms: _191  and  _192
REMARK   76  A    between atoms: _197  and  _199
REMARK   77  A    between atoms: _199  and  _200
REMARK   78  A    between atoms: _199  and  _202
REMARK   79  A    between atoms: _202  and  _203
REMARK   80  A    between atoms: _206  and  _208
REMARK   81  A    between atoms: _208  and  _209
REMARK   82  A    between atoms: _208  and  _211
REMARK   83  A    between atoms: _211  and  _212
REMARK   84  A    between atoms: _215  and  _217
REMARK   85  A    between atoms: _217  and  _218
REMARK   86  A    between atoms: _217  and  _220
REMARK   87  A    between atoms: _220  and  _221
REMARK   88  A    between atoms: _226  and  _228
REMARK   89  A    between atoms: _228  and  _229
REMARK   90  A    between atoms: _228  and  _231
REMARK   91  A    between atoms: _231  and  _232
REMARK   92  A    between atoms: _237  and  _238
REMARK   93  A    between atoms: _240  and  _242
REMARK   94  A    between atoms: _242  and  _243
REMARK   95  A    between atoms: _242  and  _245
REMARK   96  A    between atoms: _245  and  _246
REMARK   97  A    between atoms: _249  and  _251
REMARK   98  A    between atoms: _251  and  _252
REMARK   99  A    between atoms: _251  and  _254
REMARK  100  A    between atoms: _254  and  _255
REMARK  101  A    between atoms: _260  and  _262
REMARK  102  A    between atoms: _262  and  _263
REMARK  103  A    between atoms: _262  and  _265
REMARK  104  A    between atoms: _265  and  _266
REMARK  105  A    between atoms: _271  and  _273
REMARK  106  A    between atoms: _273  and  _274
REMARK  107  A    between atoms: _273  and  _276
REMARK  108  A    between atoms: _276  and  _277
REMARK  109  A    between atoms: _280  and  _282
REMARK  110  A    between atoms: _282  and  _283
REMARK  111  A    between atoms: _282  and  _285
REMARK  112  A    between atoms: _288  and  _290
REMARK  113  A    between atoms: _290  and  _291
REMARK  114  A    between atoms: _290  and  _293
REMARK  115  A    between atoms: _293  and  _294
REMARK  116  A    between atoms: _297  and  _299
REMARK  117  A    between atoms: _299  and  _300
REMARK  118  A    between atoms: _299  and  _302
REMARK  119  A    between atoms: _302  and  _303
REMARK  120  A    between atoms: _303  and  _304
REMARK  121  A    between atoms: _307  and  _309
REMARK  122  A    between atoms: _309  and  _310
REMARK  123  A    between atoms: _313  and  _315
REMARK  124  A    between atoms: _315  and  _316
REMARK  125  A    between atoms: _315  and  _318
REMARK  126  A    between atoms: _318  and  _319
REMARK  127  A    between atoms: _322  and  _324
REMARK  128  A    between atoms: _324  and  _325
REMARK  129  A    between atoms: _324  and  _327
REMARK  130  A    between atoms: _327  and  _328
REMARK  131  A    between atoms: _328  and  _329
REMARK  132  A    between atoms: _332  and  _334
REMARK  133  A    between atoms: _334  and  _335
REMARK  134  A    between atoms: _334  and  _337
REMARK  135  A    between atoms: _337  and  _338
REMARK  136  A    between atoms: _343  and  _345
REMARK  137  A    between atoms: _345  and  _346
REMARK  138  A    between atoms: _348  and  _350
REMARK  139  A    between atoms: _350  and  _351
REMARK  140  A    between atoms: _350  and  _353
REMARK  141  A    between atoms: _356  and  _358
REMARK  142  A    between atoms: _358  and  _359
REMARK  143  A    between atoms: _362  and  _364
REMARK  144  A    between atoms: _364  and  _365
REMARK  145  A    between atoms: _364  and  _367
REMARK  146  A    between atoms: _367  and  _368
REMARK  147  A    between atoms: _373  and  _375
REMARK  148  A    between atoms: _375  and  _376
REMARK  149  A    between atoms: _375  and  _378
REMARK  150  A    between atoms: _378  and  _379
REMARK  151  A    between atoms: _379  and  _380
REMARK  152  A    between atoms: _380  and  _381
REMARK  153  A    between atoms: _381  and  _382
REMARK  154  A    between atoms: _386  and  _388
REMARK  155  A    between atoms: _388  and  _389
REMARK  156  A    between atoms: _388  and  _391
REMARK  157  A    between atoms: _391  and  _392
REMARK  158  A    between atoms: _395  and  _397
REMARK  159  A    between atoms: _397  and  _398
REMARK  160  A    between atoms: _397  and  _400
REMARK  161  A    between atoms: _400  and  _401
REMARK  162  A    between atoms: _406  and  _408
REMARK  163  A    between atoms: _408  and  _409
REMARK  164  A    between atoms: _411  and  _413
REMARK  165  A    between atoms: _413  and  _414
REMARK  166  A    between atoms: _413  and  _416
REMARK  167  A    between atoms: _416  and  _417
REMARK  168  A    between atoms: _417  and  _418
REMARK  169  A    between atoms: _418  and  _419
REMARK  170  A    between atoms: _419  and  _420
REMARK  171  A    between atoms: _424  and  _426
REMARK  172  A    between atoms: _426  and  _427
REMARK  173  A    between atoms: _426  and  _429
REMARK  174  A    between atoms: _429  and  _430
REMARK  175  A    between atoms: _430  and  _431
REMARK  176  A    between atoms: _431  and  _432
REMARK  177  A    between atoms: _441  and  _443
REMARK  178  A    between atoms: _443  and  _444
REMARK  179  A    between atoms: _443  and  _446
REMARK  180  A    between atoms: _446  and  _447
REMARK  181  A    between atoms: _452  and  _454
REMARK  182  A    between atoms: _454  and  _455
REMARK  183  A    between atoms: _454  and  _457
REMARK  184  A    between atoms: _457  and  _458
REMARK  185  A    between atoms: _463  and  _464
REMARK  186  A    between atoms: _466  and  _468
REMARK  187  A    between atoms: _468  and  _469
REMARK  188  A    between atoms: _468  and  _471
REMARK  189  A    between atoms: _471  and  _472
REMARK  190  A    between atoms: _472  and  _473
REMARK  191  A    between atoms: _473  and  _474
REMARK  192  A    between atoms: _474  and  _475
REMARK  193  A    between atoms: _479  and  _481
REMARK  194  A    between atoms: _481  and  _482
REMARK  195  A    between atoms: _481  and  _484
REMARK  196  A    between atoms: _484  and  _485
REMARK  197  A    between atoms: _487  and  _489
REMARK  198  A    between atoms: _489  and  _490
REMARK  199  A    between atoms: _489  and  _492
REMARK  200  A    between atoms: _492  and  _493
REMARK  201  A    between atoms: _496  and  _498
REMARK  202  A    between atoms: _498  and  _499
REMARK  203  A    between atoms: _498  and  _501
REMARK  204  A    between atoms: _501  and  _502
REMARK  205  A    between atoms: _502  and  _503
REMARK  206  A    between atoms: _506  and  _508
REMARK  207  A    between atoms: _508  and  _509
REMARK  208  A    between atoms: _512  and  _514
REMARK  209  A    between atoms: _514  and  _515
REMARK  210  A    between atoms: _514  and  _517
REMARK  211  A    between atoms: _517  and  _518
REMARK  212  A    between atoms: _520  and  _522
REMARK  213  A    between atoms: _522  and  _523
REMARK  214  A    between atoms: _525  and  _527
REMARK  215  A    between atoms: _527  and  _528
REMARK  216  A    between atoms: _527  and  _530
REMARK  217  A    between atoms: _530  and  _531
REMARK  218  A    between atoms: _534  and  _536
REMARK  219  A    between atoms: _536  and  _537
REMARK  220  A    between atoms: _539  and  _541
REMARK  221  A    between atoms: _541  and  _542
REMARK  222  A    between atoms: _541  and  _544
REMARK  223  A    between atoms: _544  and  _545
REMARK  224  A    between atoms: _550  and  _552
REMARK  225  A    between atoms: _552  and  _553
REMARK  226  A    between atoms: _552  and  _555
REMARK  227  A    between atoms: _555  and  _556
REMARK  228  A    between atoms: _556  and  _557
REMARK  229  A    between atoms: _564  and  _565
REMARK  230  A    between atoms: _565  and  _581
REMARK  231  A    between atoms: _566  and  _568
REMARK  232  A    between atoms: _568  and  _569
REMARK  233  A    between atoms: _569  and  _570
REMARK  234  A    between atoms: _574  and  _576
REMARK  235  A    between atoms: _576  and  _577
REMARK  236  A    between atoms: _576  and  _584
REMARK  237  A    between atoms: _577  and  _578
REMARK  238  A    between atoms: _578  and  _579
REMARK  239  A    between atoms: _579  and  _580
REMARK  240  A    between atoms: _580  and  _581
REMARK  241  A    between atoms: _586  and  _588
REMARK  242  A    between atoms: _588  and  _589
REMARK  243  A    between atoms: _588  and  _591
REMARK  244  A    between atoms: _591  and  _592
REMARK  245  A    between atoms: _595  and  _597
REMARK  246  A    between atoms: _597  and  _598
REMARK  247  A    between atoms: _600  and  _602
REMARK  248  A    between atoms: _602  and  _603
REMARK  249  A    between atoms: _606  and  _608
REMARK  250  A    between atoms: _608  and  _609
REMARK  251  A    between atoms: _608  and  _611
REMARK  252  A    between atoms: _611  and  _612
REMARK  253  A    between atoms: _617  and  _618
REMARK                            x       y       z     vdW  Elec       q    Type
REMARK                         _______ _______ _______ _____ _____    ______ ____
ROOT
ATOM      1  NE  ARG A   1      39.009  25.633  40.025  0.00  0.00    -0.265 N 
ATOM      2  CZ  ARG A   1      37.863  25.170  39.537  0.00  0.00    +0.342 C 
ATOM      3  NH2 ARG A   1      36.719  25.386  40.172  0.00  0.00    -0.292 N 
ATOM      4 HH21 ARG A   1      36.712  25.923  41.063  0.00  0.00    +0.255 HD
ATOM      5 HH22 ARG A   1      35.829  25.018  39.779  0.00  0.00    +0.255 HD
ATOM      6  NH1 ARG A   1      37.870  24.483  38.404  0.00  0.00    -0.292 N 
ATOM      7 HH11 ARG A   1      36.979  24.116  38.013  0.00  0.00    +0.255 HD
ATOM      8 HH12 ARG A   1      38.767  24.311  37.906  0.00  0.00    +0.255 HD
ATOM      9  HE  ARG A   1      39.877  25.425  39.492  0.00  0.00    +0.259 HD
ENDROOT
BRANCH   1  10
ATOM     10  CD  ARG A   1      39.142  26.409  41.249  0.00  0.00    +0.174 C 
BRANCH  10  11
ATOM     11  CG  ARG A   1      40.509  27.097  41.292  0.00  0.00    +0.045 C 
BRANCH  11  12
ATOM     12  CB  ARG A   1      40.630  28.051  42.467  0.00  0.00    +0.029 C 
BRANCH  12  13
ATOM     13  CA  ARG A   1      40.540  27.387  43.838  0.00  0.00    +0.133 C 
BRANCH  13  14
ATOM     14  N   ARG A   1      40.876  28.335  44.891  0.00  0.00    -0.239 NA
ATOM     15  H   ARG A   1      41.250  29.269  44.627  0.00  0.00    +0.142 HD
ENDBRANCH  13  14
BRANCH  13  16
ATOM     16  C   ARG A   1      41.444  26.161  43.900  0.00  0.00    +0.224 C 
ATOM     17  O   ARG A   1      40.977  25.030  43.752  0.00  0.00    -0.287 OA
ENDBRANCH  13  16
ENDBRANCH  12  13
ENDBRANCH  11  12
ENDBRANCH  10  11
ENDBRANCH   1  10
TORSDOF 6
REMARK  Name = ../refined-set-2016/3g2h/3g2h_pocket.pdb
REMARK  253 active torsions:
REMARK  status: ('A' for Active; 'I' for Inactive)
REMARK    1  A    between atoms: _1  and  _3
REMARK    2  A    between atoms: _3  and  _4
REMARK    3  A    between atoms: _3  and  _6
REMARK    4  A    between atoms: _6  and  _7
REMARK    5  A    between atoms: _12  and  _13
REMARK    6  A    between atoms: _15  and  _17
REMARK    7  A    between atoms: _17  and  _18
REMARK    8  A    between atoms: _17  and  _20
REMARK    9  A    between atoms: _20  and  _21
REMARK   10  A    between atoms: _21  and  _22
REMARK   11  A    between atoms: _25  and  _27
REMARK   12  A    between atoms: _27  and  _28
REMARK   13  A    between atoms: _27  and  _30
REMARK   14  A    between atoms: _30  and  _31
REMARK   15  A    between atoms: _36  and  _38
REMARK   16  A    between atoms: _38  and  _39
REMARK   17  A    between atoms: _41  and  _43
REMARK   18  A    between atoms: _43  and  _44
REMARK   19  A    between atoms: _46  and  _48
REMARK   20  A    between atoms: _48  and  _49
REMARK   21  A    between atoms: _48  and  _51
REMARK   22  A    between atoms: _51  and  _52
REMARK   23  A    between atoms: _55  and  _57
REMARK   24  A    between atoms: _57  and  _58
REMARK   25  A    between atoms: _60  and  _62
REMARK   26  A    between atoms: _62  and  _63
REMARK   27  A    between atoms: _62  and  _65
REMARK   28  A    between atoms: _65  and  _66
REMARK   29  A    between atoms: _66  and  _67
REMARK   30  A    between atoms: _67  and  _68
REMARK   31  A    between atoms: _77  and  _79
REMARK   32  A    between atoms: _79  and  _80
REMARK   33  A    between atoms: _79  and  _82
REMARK   34  A    between atoms: _82  and  _83
REMARK   35  A    between atoms: _86  and  _88
REMARK   36  A    between atoms: _88  and  _89
REMARK   37  A    between atoms: _92  and  _94
REMARK   38  A    between atoms: _94  and  _95
REMARK   39  A    between atoms: _94  and  _97
REMARK   40  A    between atoms: _97  and  _98
REMARK   41  A    between atoms: _104  and  _106
REMARK   42  A    between atoms: _106  and  _107
REMARK   43  A    between atoms: _106  and  _109
REMARK   44  A    between atoms: _109  and  _110
REMARK   45  A    between atoms: _115  and  _117
REMARK   46  A    between atoms: _117  and  _118
REMARK   47  A    between atoms: _117  and  _120
REMARK   48  A    between atoms: _120  and  _121
REMARK   49  A    between atoms: _124  and  _126
REMARK   50  A    between atoms: _126  and  _127
REMARK   51  A    between atoms: _126  and  _129
REMARK   52  A    between atoms: _129  and  _130
REMARK   53  A    between atoms: _135  and  _137
REMARK   54  A    between atoms: _137  and  _138
REMARK   55  A    between atoms: _137  and  _140
REMARK   56  A    between atoms: _140  and  _141
REMARK   57  A    between atoms: _147  and  _149
REMARK   58  A    between atoms: _149  and  _150
REMARK   59  A    between atoms: _149  and  _152
REMARK   60  A    between atoms: _152  and  _153
REMARK   61  A    between atoms: _159  and  _161
REMARK   62  A    between atoms: _161  and  _162
REMARK   63  A    between atoms: _161  and  _164
REMARK   64  A    between atoms: _164  and  _165
REMARK   65  A    between atoms: _165  and  _166
REMARK   66  A    between atoms: _169  and  _171
REMARK   67  A    between atoms: _171  and  _172
REMARK   68  A    between atoms: _171  and  _174
REMARK   69  A    between atoms: _174  and  _175
REMARK   70  A    between atoms: _175  and  _176
REMARK   71  A    between atoms: _176  and  _177
REMARK   72  A    between atoms: _186  and  _188
REMARK   73  A    between atoms: _188  and  _189
REMARK   74  A    between atoms: _188  and  _191
REMARK   75  A    between atoms: _191  and  _192
REMARK   76  A    between atoms: _197  and  _199
REMARK   77  A    between atoms: _199  and  _200
REMARK   78  A    between atoms: _199  and  _202
REMARK   79  A    between atoms: _202  and  _203
REMARK   80  A    between atoms: _206  and  _208
REMARK   81  A    between atoms: _208  and  _209
REMARK   82  A    between atoms: _208  and  _211
REMARK   83  A    between atoms: _211  and  _212
REMARK   84  A    between atoms: _215  and  _217
REMARK   85  A    between atoms: _217  and  _218
REMARK   86  A    between atoms: _217  and  _220
REMARK   87  A    between atoms: _220  and  _221
REMARK   88  A    between atoms: _226  and  _228
REMARK   89  A    between atoms: _228  and  _229
REMARK   90  A    between atoms: _228  and  _231
REMARK   91  A    between atoms: _231  and  _232
REMARK   92  A    between atoms: _237  and  _238
REMARK   93  A    between atoms: _240  and  _242
REMARK   94  A    between atoms: _242  and  _243
REMARK   95  A    between atoms: _242  and  _245
REMARK   96  A    between atoms: _245  and  _246
REMARK   97  A    between atoms: _249  and  _251
REMARK   98  A    between atoms: _251  and  _252
REMARK   99  A    between atoms: _251  and  _254
REMARK  100  A    between atoms: _254  and  _255
REMARK  101  A    between atoms: _260  and  _262
REMARK  102  A    between atoms: _262  and  _263
REMARK  103  A    between atoms: _262  and  _265
REMARK  104  A    between atoms: _265  and  _266
REMARK  105  A    between atoms: _271  and  _273
REMARK  106  A    between atoms: _273  and  _274
REMARK  107  A    between atoms: _273  and  _276
REMARK  108  A    between atoms: _276  and  _277
REMARK  109  A    between atoms: _280  and  _282
REMARK  110  A    between atoms: _282  and  _283
REMARK  111  A    between atoms: _282  and  _285
REMARK  112  A    between atoms: _288  and  _290
REMARK  113  A    between atoms: _290  and  _291
REMARK  114  A    between atoms: _290  and  _293
REMARK  115  A    between atoms: _293  and  _294
REMARK  116  A    between atoms: _297  and  _299
REMARK  117  A    between atoms: _299  and  _300
REMARK  118  A    between atoms: _299  and  _302
REMARK  119  A    between atoms: _302  and  _303
REMARK  120  A    between atoms: _303  and  _304
REMARK  121  A    between atoms: _307  and  _309
REMARK  122  A    between atoms: _309  and  _310
REMARK  123  A    between atoms: _313  and  _315
REMARK  124  A    between atoms: _315  and  _316
REMARK  125  A    between atoms: _315  and  _318
REMARK  126  A    between atoms: _318  and  _319
REMARK  127  A    between atoms: _322  and  _324
REMARK  128  A    between atoms: _324  and  _325
REMARK  129  A    between atoms: _324  and  _327
REMARK  130  A    between atoms: _327  and  _328
REMARK  131  A    between atoms: _328  and  _329
REMARK  132  A    between atoms: _332  and  _334
REMARK  133  A    between atoms: _334  and  _335
REMARK  134  A    between atoms: _334  and  _337
REMARK  135  A    between atoms: _337  and  _338
REMARK  136  A    between atoms: _343  and  _345
REMARK  137  A    between atoms: _345  and  _346
REMARK  138  A    between atoms: _348  and  _350
REMARK  139  A    between atoms: _350  and  _351
REMARK  140  A    between atoms: _350  and  _353
REMARK  141  A    between atoms: _356  and  _358
REMARK  142  A    between atoms: _358  and  _359
REMARK  143  A    between atoms: _362  and  _364
REMARK  144  A    between atoms: _364  and  _365
REMARK  145  A    between atoms: _364  and  _367
REMARK  146  A    between atoms: _367  and  _368
REMARK  147  A    between atoms: _373  and  _375
REMARK  148  A    between atoms: _375  and  _376
REMARK  149  A    between atoms: _375  and  _378
REMARK  150  A    between atoms: _378  and  _379
REMARK  151  A    between atoms: _379  and  _380
REMARK  152  A    between atoms: _380  and  _381
REMARK  153  A    between atoms: _381  and  _382
REMARK  154  A    between atoms: _386  and  _388
REMARK  155  A    between atoms: _388  and  _389
REMARK  156  A    between atoms: _388  and  _391
REMARK  157  A    between atoms: _391  and  _392
REMARK  158  A    between atoms: _395  and  _397
REMARK  159  A    between atoms: _397  and  _398
REMARK  160  A    between atoms: _397  and  _400
REMARK  161  A    between atoms: _400  and  _401
REMARK  162  A    between atoms: _406  and  _408
REMARK  163  A    between atoms: _408  and  _409
REMARK  164  A    between atoms: _411  and  _413
REMARK  165  A    between atoms: _413  and  _414
REMARK  166  A    between atoms: _413  and  _416
REMARK  167  A    between atoms: _416  and  _417
REMARK  168  A    between atoms: _417  and  _418
REMARK  169  A    between atoms: _418  and  _419
REMARK  170  A    between atoms: _419  and  _420
REMARK  171  A    between atoms: _424  and  _426
REMARK  172  A    between atoms: _426  and  _427
REMARK  173  A    between atoms: _426  and  _429
REMARK  174  A    between atoms: _429  and  _430
REMARK  175  A    between atoms: _430  and  _431
REMARK  176  A    between atoms: _431  and  _432
REMARK  177  A    between atoms: _441  and  _443
REMARK  178  A    between atoms: _443  and  _444
REMARK  179  A    between atoms: _443  and  _446
REMARK  180  A    between atoms: _446  and  _447
REMARK  181  A    between atoms: _452  and  _454
REMARK  182  A    between atoms: _454  and  _455
REMARK  183  A    between atoms: _454  and  _457
REMARK  184  A    between atoms: _457  and  _458
REMARK  185  A    between atoms: _463  and  _464
REMARK  186  A    between atoms: _466  and  _468
REMARK  187  A    between atoms: _468  and  _469
REMARK  188  A    between atoms: _468  and  _471
REMARK  189  A    between atoms: _471  and  _472
REMARK  190  A    between atoms: _472  and  _473
REMARK  191  A    between atoms: _473  and  _474
REMARK  192  A    between atoms: _474  and  _475
REMARK  193  A    between atoms: _479  and  _481
REMARK  194  A    between atoms: _481  and  _482
REMARK  195  A    between atoms: _481  and  _484
REMARK  196  A    between atoms: _484  and  _485
REMARK  197  A    between atoms: _487  and  _489
REMARK  198  A    between atoms: _489  and  _490
REMARK  199  A    between atoms: _489  and  _492
REMARK  200  A    between atoms: _492  and  _493
REMARK  201  A    between atoms: _496  and  _498
REMARK  202  A    between atoms: _498  and  _499
REMARK  203  A    between atoms: _498  and  _501
REMARK  204  A    between atoms: _501  and  _502
REMARK  205  A    between atoms: _502  and  _503
REMARK  206  A    between atoms: _506  and  _508
REMARK  207  A    between atoms: _508  and  _509
REMARK  208  A    between atoms: _512  and  _514
REMARK  209  A    between atoms: _514  and  _515
REMARK  210  A    between atoms: _514  and  _517
REMARK  211  A    between atoms: _517  and  _518
REMARK  212  A    between atoms: _520  and  _522
REMARK  213  A    between atoms: _522  and  _523
REMARK  214  A    between atoms: _525  and  _527
REMARK  215  A    between atoms: _527  and  _528
REMARK  216  A    between atoms: _527  and  _530
REMARK  217  A    between atoms: _530  and  _531
REMARK  218  A    between atoms: _534  and  _536
REMARK  219  A    between atoms: _536  and  _537
REMARK  220  A    between atoms: _539  and  _541
REMARK  221  A    between atoms: _541  and  _542
REMARK  222  A    between atoms: _541  and  _544
REMARK  223  A    between atoms: _544  and  _545
REMARK  224  A    between atoms: _550  and  _552
REMARK  225  A    between atoms: _552  and  _553
REMARK  226  A    between atoms: _552  and  _555
REMARK  227  A    between atoms: _555  and  _556
REMARK  228  A    between atoms: _556  and  _557
REMARK  229  A    between atoms: _564  and  _565
REMARK  230  A    between atoms: _565  and  _581
REMARK  231  A    between atoms: _566  and  _568
REMARK  232  A    between atoms: _568  and  _569
REMARK  233  A    between atoms: _569  and  _570
REMARK  234  A    between atoms: _574  and  _576
REMARK  235  A    between atoms: _576  and  _577
REMARK  236  A    between atoms: _576  and  _584
REMARK  237  A    between atoms: _577  and  _578
REMARK  238  A    between atoms: _578  and  _579
REMARK  239  A    between atoms: _579  and  _580
REMARK  240  A    between atoms: _580  and  _581
REMARK  241  A    between atoms: _586  and  _588
REMARK  242  A    between atoms: _588  and  _589
REMARK  243  A    between atoms: _588  and  _591
REMARK  244  A    between atoms: _591  and  _592
REMARK  245  A    between atoms: _595  and  _597
REMARK  246  A    between atoms: _597  and  _598
REMARK  247  A    between atoms: _600  and  _602
REMARK  248  A    between atoms: _602  and  _603
REMARK  249  A    between atoms: _606  and  _608
REMARK  250  A    between atoms: _608  and  _609
REMARK  251  A    between atoms: _608  and  _611
REMARK  252  A    between atoms: _611  and  _612
REMARK  253  A    between atoms: _617  and  _618
REMARK                            x       y       z     vdW  Elec       q    Type
REMARK                         _______ _______ _______ _____ _____    ______ ____
ROOT
ATOM      1  C   ASP A   2      40.665  18.054  33.749  0.00  0.00    +0.241 C 
ATOM      2  O   ASP A   2      40.766  17.073  34.481  0.00  0.00    -0.273 OA
ATOM      3  N   THR A   3      41.490  19.095  33.830  0.00  0.00    -0.295 N 
ATOM      4  H   THR A   3      41.320  19.924  33.225  0.00  0.00    +0.150 HD
ENDROOT
BRANCH   1   5
ATOM      5  CA  ASP A   2      39.557  18.111  32.688  0.00  0.00    +0.160 C 
BRANCH   5   8
ATOM      6  C   ASN A   1      37.768  17.051  34.038  0.00  0.00    +0.239 C 
ATOM      7  O   ASN A   1      37.707  17.963  34.873  0.00  0.00    -0.274 OA
ATOM      8  N   ASP A   2      38.538  17.088  32.946  0.00  0.00    -0.297 N 
ATOM      9  H   ASP A   2      38.406  16.343  32.233  0.00  0.00    +0.150 HD
BRANCH   6  10
ATOM     10  CA  ASN A   1      36.964  15.767  34.212  0.00  0.00    +0.154 C 
BRANCH  10  11
ATOM     11  N   ASN A   1      37.768  14.851  35.011  0.00  0.00    -0.238 NA
ATOM     12  H   ASN A   1      37.559  14.748  36.024  0.00  0.00    +0.142 HD
ENDBRANCH  10  11
BRANCH  10  13
ATOM     13  CB  ASN A   1      35.606  16.030  34.878  0.00  0.00    +0.111 C 
BRANCH  13  14
ATOM     14  CG  ASN A   1      34.559  16.543  33.904  0.00  0.00    +0.221 C 
ATOM     15  ND2 ASN A   1      33.515  17.173  34.435  0.00  0.00    -0.329 N 
ATOM     16 HD21 ASN A   1      33.451  17.296  35.466  0.00  0.00    +0.145 HD
ATOM     17 HD22 ASN A   1      32.763  17.543  33.819  0.00  0.00    +0.145 HD
ATOM     18  OD1 ASN A   1      34.682  16.372  32.688  0.00  0.00    -0.275 OA
ENDBRANCH  13  14
ENDBRANCH  10  13
ENDBRANCH   6  10
ENDBRANCH   5   8
BRANCH   5  19
ATOM     19  CB  ASP A   2      38.951  19.514  32.545  0.00  0.00    +0.143 C 
BRANCH  19  20
ATOM     20  CG  ASP A   2      39.702  20.354  31.535  0.00  0.00    +0.367 C 
ATOM     21  OD2 ASP A   2      40.616  21.079  31.966  0.00  0.00    -0.246 OA
ATOM     22  OD1 ASP A   2      39.416  20.264  30.316  0.00  0.00    -0.246 OA
ENDBRANCH  19  20
ENDBRANCH   5  19
ENDBRANCH   1   5
BRANCH   3  23
ATOM     23  CA  THR A   3      42.628  19.104  34.746  0.00  0.00    +0.176 C 
BRANCH  23  24
ATOM     24  C   THR A   3      42.263  19.519  36.167  0.00  0.00    +0.243 C 
ATOM     25  O   THR A   3      43.107  19.473  37.062  0.00  0.00    -0.273 OA
ATOM     26  N   HIS A   4      41.019  19.939  36.386  0.00  0.00    -0.298 N 
ATOM     27  H   HIS A   4      40.324  19.926  35.613  0.00  0.00    +0.150 HD
BRANCH  26  28
ATOM     28  CA  HIS A   4      40.626  20.420  37.714  0.00  0.00    +0.143 C 
BRANCH  28  29
ATOM     29  C   HIS A   4      40.968  19.451  38.854  0.00  0.00    +0.227 C 
ATOM     30  O   HIS A   4      41.444  19.888  39.897  0.00  0.00    -0.286 OA
ENDBRANCH  28  29
BRANCH  28  31
ATOM     31  CB  HIS A   4      39.152  20.861  37.762  0.00  0.00    +0.075 C 
BRANCH  31  32
ATOM     32  CG  HIS A   4      38.758  21.771  36.638  0.00  0.00    +0.082 A 
ATOM     33  ND1 HIS A   4      37.472  21.837  36.152  0.00  0.00    -0.227 NA
ATOM     34  CE1 HIS A   4      37.421  22.711  35.161  0.00  0.00    +0.199 A 
ATOM     35  NE2 HIS A   4      38.632  23.209  34.983  0.00  0.00    -0.221 NA
ATOM     36  CD2 HIS A   4      39.487  22.635  35.892  0.00  0.00    +0.115 A 
ENDBRANCH  31  32
ENDBRANCH  28  31
ENDBRANCH  26  28
ENDBRANCH  23  24
BRANCH  23  37
ATOM     37  CB  THR A   3      43.747  20.052  34.253  0.00  0.00    +0.137 C 
ATOM     38  CG2 THR A   3      44.265  19.623  32.900  0.00  0.00    +0.034 C 
BRANCH  37  39
ATOM     39  OG1 THR A   3      43.225  21.377  34.143  0.00  0.00    -0.382 OA
ATOM     40  HG1 THR A   3      42.901  21.677  35.029  0.00  0.00    +0.210 HD
ENDBRANCH  37  39
ENDBRANCH  23  37
ENDBRANCH   3  23
TORSDOF 16
REMARK  Name = ../refined-set-2016/3g2h/3g2h_pocket.pdb
REMARK  253 active torsions:
REMARK  status: ('A' for Active; 'I' for Inactive)
REMARK    1  A    between atoms: _1  and  _3
REMARK    2  A    between atoms: _3  and  _4
REMARK    3  A    between atoms: _3  and  _6
REMARK    4  A    between atoms: _6  and  _7
REMARK    5  A    between atoms: _12  and  _13
REMARK    6  A    between atoms: _15  and  _17
REMARK    7  A    between atoms: _17  and  _18
REMARK    8  A    between atoms: _17  and  _20
REMARK    9  A    between atoms: _20  and  _21
REMARK   10  A    between atoms: _21  and  _22
REMARK   11  A    between atoms: _25  and  _27
REMARK   12  A    between atoms: _27  and  _28
REMARK   13  A    between atoms: _27  and  _30
REMARK   14  A    between atoms: _30  and  _31
REMARK   15  A    between atoms: _36  and  _38
REMARK   16  A    between atoms: _38  and  _39
REMARK   17  A    between atoms: _41  and  _43
REMARK   18  A    between atoms: _43  and  _44
REMARK   19  A    between atoms: _46  and  _48
REMARK   20  A    between atoms: _48  and  _49
REMARK   21  A    between atoms: _48  and  _51
REMARK   22  A    between atoms: _51  and  _52
REMARK   23  A    between atoms: _55  and  _57
REMARK   24  A    between atoms: _57  and  _58
REMARK   25  A    between atoms: _60  and  _62
REMARK   26  A    between atoms: _62  and  _63
REMARK   27  A    between atoms: _62  and  _65
REMARK   28  A    between atoms: _65  and  _66
REMARK   29  A    between atoms: _66  and  _67
REMARK   30  A    between atoms: _67  and  _68
REMARK   31  A    between atoms: _77  and  _79
REMARK   32  A    between atoms: _79  and  _80
REMARK   33  A    between atoms: _79  and  _82
REMARK   34  A    between atoms: _82  and  _83
REMARK   35  A    between atoms: _86  and  _88
REMARK   36  A    between atoms: _88  and  _89
REMARK   37  A    between atoms: _92  and  _94
REMARK   38  A    between atoms: _94  and  _95
REMARK   39  A    between atoms: _94  and  _97
REMARK   40  A    between atoms: _97  and  _98
REMARK   41  A    between atoms: _104  and  _106
REMARK   42  A    between atoms: _106  and  _107
REMARK   43  A    between atoms: _106  and  _109
REMARK   44  A    between atoms: _109  and  _110
REMARK   45  A    between atoms: _115  and  _117
REMARK   46  A    between atoms: _117  and  _118
REMARK   47  A    between atoms: _117  and  _120
REMARK   48  A    between atoms: _120  and  _121
REMARK   49  A    between atoms: _124  and  _126
REMARK   50  A    between atoms: _126  and  _127
REMARK   51  A    between atoms: _126  and  _129
REMARK   52  A    between atoms: _129  and  _130
REMARK   53  A    between atoms: _135  and  _137
REMARK   54  A    between atoms: _137  and  _138
REMARK   55  A    between atoms: _137  and  _140
REMARK   56  A    between atoms: _140  and  _141
REMARK   57  A    between atoms: _147  and  _149
REMARK   58  A    between atoms: _149  and  _150
REMARK   59  A    between atoms: _149  and  _152
REMARK   60  A    between atoms: _152  and  _153
REMARK   61  A    between atoms: _159  and  _161
REMARK   62  A    between atoms: _161  and  _162
REMARK   63  A    between atoms: _161  and  _164
REMARK   64  A    between atoms: _164  and  _165
REMARK   65  A    between atoms: _165  and  _166
REMARK   66  A    between atoms: _169  and  _171
REMARK   67  A    between atoms: _171  and  _172
REMARK   68  A    between atoms: _171  and  _174
REMARK   69  A    between atoms: _174  and  _175
REMARK   70  A    between atoms: _175  and  _176
REMARK   71  A    between atoms: _176  and  _177
REMARK   72  A    between atoms: _186  and  _188
REMARK   73  A    between atoms: _188  and  _189
REMARK   74  A    between atoms: _188  and  _191
REMARK   75  A    between atoms: _191  and  _192
REMARK   76  A    between atoms: _197  and  _199
REMARK   77  A    between atoms: _199  and  _200
REMARK   78  A    between atoms: _199  and  _202
REMARK   79  A    between atoms: _202  and  _203
REMARK   80  A    between atoms: _206  and  _208
REMARK   81  A    between atoms: _208  and  _209
REMARK   82  A    between atoms: _208  and  _211
REMARK   83  A    between atoms: _211  and  _212
REMARK   84  A    between atoms: _215  and  _217
REMARK   85  A    between atoms: _217  and  _218
REMARK   86  A    between atoms: _217  and  _220
REMARK   87  A    between atoms: _220  and  _221
REMARK   88  A    between atoms: _226  and  _228
REMARK   89  A    between atoms: _228  and  _229
REMARK   90  A    between atoms: _228  and  _231
REMARK   91  A    between atoms: _231  and  _232
REMARK   92  A    between atoms: _237  and  _238
REMARK   93  A    between atoms: _240  and  _242
REMARK   94  A    between atoms: _242  and  _243
REMARK   95  A    between atoms: _242  and  _245
REMARK   96  A    between atoms: _245  and  _246
REMARK   97  A    between atoms: _249  and  _251
REMARK   98  A    between atoms: _251  and  _252
REMARK   99  A    between atoms: _251  and  _254
REMARK  100  A    between atoms: _254  and  _255
REMARK  101  A    between atoms: _260  and  _262
REMARK  102  A    between atoms: _262  and  _263
REMARK  103  A    between atoms: _262  and  _265
REMARK  104  A    between atoms: _265  and  _266
REMARK  105  A    between atoms: _271  and  _273
REMARK  106  A    between atoms: _273  and  _274
REMARK  107  A    between atoms: _273  and  _276
REMARK  108  A    between atoms: _276  and  _277
REMARK  109  A    between atoms: _280  and  _282
REMARK  110  A    between atoms: _282  and  _283
REMARK  111  A    between atoms: _282  and  _285
REMARK  112  A    between atoms: _288  and  _290
REMARK  113  A    between atoms: _290  and  _291
REMARK  114  A    between atoms: _290  and  _293
REMARK  115  A    between atoms: _293  and  _294
REMARK  116  A    between atoms: _297  and  _299
REMARK  117  A    between atoms: _299  and  _300
REMARK  118  A    between atoms: _299  and  _302
REMARK  119  A    between atoms: _302  and  _303
REMARK  120  A    between atoms: _303  and  _304
REMARK  121  A    between atoms: _307  and  _309
REMARK  122  A    between atoms: _309  and  _310
REMARK  123  A    between atoms: _313  and  _315
REMARK  124  A    between atoms: _315  and  _316
REMARK  125  A    between atoms: _315  and  _318
REMARK  126  A    between atoms: _318  and  _319
REMARK  127  A    between atoms: _322  and  _324
REMARK  128  A    between atoms: _324  and  _325
REMARK  129  A    between atoms: _324  and  _327
REMARK  130  A    between atoms: _327  and  _328
REMARK  131  A    between atoms: _328  and  _329
REMARK  132  A    between atoms: _332  and  _334
REMARK  133  A    between atoms: _334  and  _335
REMARK  134  A    between atoms: _334  and  _337
REMARK  135  A    between atoms: _337  and  _338
REMARK  136  A    between atoms: _343  and  _345
REMARK  137  A    between atoms: _345  and  _346
REMARK  138  A    between atoms: _348  and  _350
REMARK  139  A    between atoms: _350  and  _351
REMARK  140  A    between atoms: _350  and  _353
REMARK  141  A    between atoms: _356  and  _358
REMARK  142  A    between atoms: _358  and  _359
REMARK  143  A    between atoms: _362  and  _364
REMARK  144  A    between atoms: _364  and  _365
REMARK  145  A    between atoms: _364  and  _367
REMARK  146  A    between atoms: _367  and  _368
REMARK  147  A    between atoms: _373  and  _375
REMARK  148  A    between atoms: _375  and  _376
REMARK  149  A    between atoms: _375  and  _378
REMARK  150  A    between atoms: _378  and  _379
REMARK  151  A    between atoms: _379  and  _380
REMARK  152  A    between atoms: _380  and  _381
REMARK  153  A    between atoms: _381  and  _382
REMARK  154  A    between atoms: _386  and  _388
REMARK  155  A    between atoms: _388  and  _389
REMARK  156  A    between atoms: _388  and  _391
REMARK  157  A    between atoms: _391  and  _392
REMARK  158  A    between atoms: _395  and  _397
REMARK  159  A    between atoms: _397  and  _398
REMARK  160  A    between atoms: _397  and  _400
REMARK  161  A    between atoms: _400  and  _401
REMARK  162  A    between atoms: _406  and  _408
REMARK  163  A    between atoms: _408  and  _409
REMARK  164  A    between atoms: _411  and  _413
REMARK  165  A    between atoms: _413  and  _414
REMARK  166  A    between atoms: _413  and  _416
REMARK  167  A    between atoms: _416  and  _417
REMARK  168  A    between atoms: _417  and  _418
REMARK  169  A    between atoms: _418  and  _419
REMARK  170  A    between atoms: _419  and  _420
REMARK  171  A    between atoms: _424  and  _426
REMARK  172  A    between atoms: _426  and  _427
REMARK  173  A    between atoms: _426  and  _429
REMARK  174  A    between atoms: _429  and  _430
REMARK  175  A    between atoms: _430  and  _431
REMARK  176  A    between atoms: _431  and  _432
REMARK  177  A    between atoms: _441  and  _443
REMARK  178  A    between atoms: _443  and  _444
REMARK  179  A    between atoms: _443  and  _446
REMARK  180  A    between atoms: _446  and  _447
REMARK  181  A    between atoms: _452  and  _454
REMARK  182  A    between atoms: _454  and  _455
REMARK  183  A    between atoms: _454  and  _457
REMARK  184  A    between atoms: _457  and  _458
REMARK  185  A    between atoms: _463  and  _464
REMARK  186  A    between atoms: _466  and  _468
REMARK  187  A    between atoms: _468  and  _469
REMARK  188  A    between atoms: _468  and  _471
REMARK  189  A    between atoms: _471  and  _472
REMARK  190  A    between atoms: _472  and  _473
REMARK  191  A    between atoms: _473  and  _474
REMARK  192  A    between atoms: _474  and  _475
REMARK  193  A    between atoms: _479  and  _481
REMARK  194  A    between atoms: _481  and  _482
REMARK  195  A    between atoms: _481  and  _484
REMARK  196  A    between atoms: _484  and  _485
REMARK  197  A    between atoms: _487  and  _489
REMARK  198  A    between atoms: _489  and  _490
REMARK  199  A    between atoms: _489  and  _492
REMARK  200  A    between atoms: _492  and  _493
REMARK  201  A    between atoms: _496  and  _498
REMARK  202  A    between atoms: _498  and  _499
REMARK  203  A    between atoms: _498  and  _501
REMARK  204  A    between atoms: _501  and  _502
REMARK  205  A    between atoms: _502  and  _503
REMARK  206  A    between atoms: _506  and  _508
REMARK  207  A    between atoms: _508  and  _509
REMARK  208  A    between atoms: _512  and  _514
REMARK  209  A    between atoms: _514  and  _515
REMARK  210  A    between atoms: _514  and  _517
REMARK  211  A    between atoms: _517  and  _518
REMARK  212  A    between atoms: _520  and  _522
REMARK  213  A    between atoms: _522  and  _523
REMARK  214  A    between atoms: _525  and  _527
REMARK  215  A    between atoms: _527  and  _528
REMARK  216  A    between atoms: _527  and  _530
REMARK  217  A    between atoms: _530  and  _531
REMARK  218  A    between atoms: _534  and  _536
REMARK  219  A    between atoms: _536  and  _537
REMARK  220  A    between atoms: _539  and  _541
REMARK  221  A    between atoms: _541  and  _542
REMARK  222  A    between atoms: _541  and  _544
REMARK  223  A    between atoms: _544  and  _545
REMARK  224  A    between atoms: _550  and  _552
REMARK  225  A    between atoms: _552  and  _553
REMARK  226  A    between atoms: _552  and  _555
REMARK  227  A    between atoms: _555  and  _556
REMARK  228  A    between atoms: _556  and  _557
REMARK  229  A    between atoms: _564  and  _565
REMARK  230  A    between atoms: _565  and  _581
REMARK  231  A    between atoms: _566  and  _568
REMARK  232  A    between atoms: _568  and  _569
REMARK  233  A    between atoms: _569  and  _570
REMARK  234  A    between atoms: _574  and  _576
REMARK  235  A    between atoms: _576  and  _577
REMARK  236  A    between atoms: _576  and  _584
REMARK  237  A    between atoms: _577  and  _578
REMARK  238  A    between atoms: _578  and  _579
REMARK  239  A    between atoms: _579  and  _580
REMARK  240  A    between atoms: _580  and  _581
REMARK  241  A    between atoms: _586  and  _588
REMARK  242  A    between atoms: _588  and  _589
REMARK  243  A    between atoms: _588  and  _591
REMARK  244  A    between atoms: _591  and  _592
REMARK  245  A    between atoms: _595  and  _597
REMARK  246  A    between atoms: _597  and  _598
REMARK  247  A    between atoms: _600  and  _602
REMARK  248  A    between atoms: _602  and  _603
REMARK  249  A    between atoms: _606  and  _608
REMARK  250  A    between atoms: _608  and  _609
REMARK  251  A    between atoms: _608  and  _611
REMARK  252  A    between atoms: _611  and  _612
REMARK  253  A    between atoms: _617  and  _618
REMARK                            x       y       z     vdW  Elec       q    Type
REMARK                         _______ _______ _______ _____ _____    ______ ____
ROOT
ATOM      1  C   ASN A   3      38.881  18.073  27.238  0.00  0.00    +0.241 C 
ATOM      2  N   HIS A   4      38.532  19.294  27.647  0.00  0.00    -0.297 N 
ATOM      3  H   HIS A   4      39.177  19.822  28.269  0.00  0.00    +0.150 HD
ATOM      4  O   ASN A   3      38.218  17.412  26.439  0.00  0.00    -0.273 OA
ENDROOT
BRANCH   2   5
ATOM      5  CA  HIS A   4      37.272  19.909  27.247  0.00  0.00    +0.155 C 
BRANCH   5   6
ATOM      6  C   HIS A   4      37.438  21.248  26.538  0.00  0.00    +0.241 C 
ATOM      7  N   THR A   5      38.683  21.673  26.311  0.00  0.00    -0.295 N 
ATOM      8  H   THR A   5      39.482  21.113  26.671  0.00  0.00    +0.150 HD
ATOM      9  O   HIS A   4      36.442  21.895  26.218  0.00  0.00    -0.273 OA
BRANCH   7  10
ATOM     10  CA  THR A   5      38.955  22.907  25.568  0.00  0.00    +0.176 C 
BRANCH  10  11
ATOM     11  C   THR A   5      40.402  23.009  25.103  0.00  0.00    +0.243 C 
ATOM     12  O   THR A   5      41.316  22.505  25.762  0.00  0.00    -0.273 OA
ATOM     13  N   VAL A   6      40.591  23.658  23.958  0.00  0.00    -0.297 N 
ATOM     14  H   VAL A   6      39.762  23.965  23.410  0.00  0.00    +0.150 HD
BRANCH  13  15
ATOM     15  CA  VAL A   6      41.923  23.952  23.447  0.00  0.00    +0.149 C 
BRANCH  15  16
ATOM     16  C   VAL A   6      42.279  25.420  23.638  0.00  0.00    +0.241 C 
ATOM     17  N   LEU A   7      41.344  26.207  24.167  0.00  0.00    -0.298 N 
ATOM     18  H   LEU A   7      40.426  25.797  24.433  0.00  0.00    +0.150 HD
ATOM     19  O   VAL A   6      43.385  25.827  23.300  0.00  0.00    -0.273 OA
BRANCH  17  20
ATOM     20  CA  LEU A   7      41.577  27.633  24.383  0.00  0.00    +0.137 C 
BRANCH  20  21
ATOM     21  C   LEU A   7      42.654  27.817  25.443  0.00  0.00    +0.227 C 
ATOM     22  O   LEU A   7      42.483  27.375  26.579  0.00  0.00    -0.286 OA
ENDBRANCH  20  21
BRANCH  20  23
ATOM     23  CB  LEU A   7      40.287  28.359  24.777  0.00  0.00    +0.028 C 
BRANCH  23  24
ATOM     24  CG  LEU A   7      39.203  28.430  23.694  0.00  0.00    +0.002 C 
ATOM     25  CD2 LEU A   7      37.884  28.863  24.302  0.00  0.00    +0.000 C 
ATOM     26  CD1 LEU A   7      39.601  29.352  22.545  0.00  0.00    +0.000 C 
ENDBRANCH  23  24
ENDBRANCH  20  23
ENDBRANCH  17  20
ENDBRANCH  15  16
BRANCH  15  27
ATOM     27  CB  VAL A   6      42.086  23.582  21.953  0.00  0.00    +0.027 C 
ATOM     28  CG2 VAL A   6      41.769  22.101  21.725  0.00  0.00    +0.002 C 
ATOM     29  CG1 VAL A   6      41.222  24.489  21.062  0.00  0.00    +0.002 C 
ENDBRANCH  15  27
ENDBRANCH  13  15
ENDBRANCH  10  11
BRANCH  10  30
ATOM     30  CB  THR A   5      38.589  24.185  26.363  0.00  0.00    +0.137 C 
ATOM     31  CG2 THR A   5      39.479  24.366  27.582  0.00  0.00    +0.034 C 
BRANCH  30  32
ATOM     32  OG1 THR A   5      38.719  25.330  25.512  0.00  0.00    -0.382 OA
ATOM     33  HG1 THR A   5      38.485  26.146  26.021  0.00  0.00    +0.210 HD
ENDBRANCH  30  32
ENDBRANCH  10  30
ENDBRANCH   7  10
ENDBRANCH   5   6
BRANCH   5  34
ATOM     34  CB  HIS A   4      36.360  20.095  28.459  0.00  0.00    +0.076 C 
BRANCH  34  35
ATOM     35  CG  HIS A   4      35.960  18.819  29.120  0.00  0.00    +0.082 A 
ATOM     36  CD2 HIS A   4      36.573  18.080  30.074  0.00  0.00    +0.115 A 
ATOM     37  NE2 HIS A   4      35.767  16.999  30.329  0.00  0.00    -0.221 NA
ATOM     38  CE1 HIS A   4      34.696  17.071  29.558  0.00  0.00    +0.199 A 
ATOM     39  ND1 HIS A   4      34.789  18.160  28.818  0.00  0.00    -0.227 NA
ENDBRANCH  34  35
ENDBRANCH   5  34
ENDBRANCH   2   5
BRANCH   1  40
ATOM     40  CA  ASN A   3      40.175  17.505  27.814  0.00  0.00    +0.158 C 
BRANCH  40  43
ATOM     41  C   THR A   2      39.616  15.647  29.276  0.00  0.00    +0.243 C 
ATOM     42  O   THR A   2      39.452  16.377  30.246  0.00  0.00    -0.273 OA
ATOM     43  N   ASN A   3      40.007  16.088  28.088  0.00  0.00    -0.297 N 
ATOM     44  H   ASN A   3      40.199  15.401  27.332  0.00  0.00    +0.150 HD
BRANCH  41  45
ATOM     45  CA  THR A   2      39.375  14.160  29.389  0.00  0.00    +0.176 C 
BRANCH  45  47
ATOM     46  C   TYR A   1      41.202  12.789  30.213  0.00  0.00    +0.239 C 
ATOM     47  N   THR A   2      40.204  13.628  30.459  0.00  0.00    -0.295 N 
ATOM     48  H   THR A   2      40.010  13.912  31.440  0.00  0.00    +0.150 HD
ATOM     49  O   TYR A   1      41.445  12.350  29.096  0.00  0.00    -0.274 OA
BRANCH  46  50
ATOM     50  CA  TYR A   1      42.040  12.373  31.412  0.00  0.00    +0.149 C 
BRANCH  50  51
ATOM     51  N   TYR A   1      42.254  10.942  31.432  0.00  0.00    -0.238 NA
ATOM     52  H   TYR A   1      42.693  10.480  30.610  0.00  0.00    +0.142 HD
ENDBRANCH  50  51
BRANCH  50  53
ATOM     53  CB  TYR A   1      43.397  13.087  31.446  0.00  0.00    +0.053 C 
BRANCH  53  54
ATOM     54  CG  TYR A   1      43.419  14.508  30.916  0.00  0.00    -0.020 A 
ATOM     55  CD2 TYR A   1      42.693  15.519  31.538  0.00  0.00    -0.001 A 
ATOM     56  CE2 TYR A   1      42.709  16.826  31.050  0.00  0.00    +0.036 A 
ATOM     57  CZ  TYR A   1      43.488  17.133  29.947  0.00  0.00    +0.134 A 
ATOM     58  CE1 TYR A   1      44.237  16.153  29.323  0.00  0.00    +0.036 A 
ATOM     59  CD1 TYR A   1      44.201  14.843  29.812  0.00  0.00    -0.001 A 
BRANCH  57  60
ATOM     60  OH  TYR A   1      43.514  18.431  29.476  0.00  0.00    -0.506 OA
ATOM     61  HH  TYR A   1      43.848  19.032  30.188  0.00  0.00    +0.292 HD
ENDBRANCH  57  60
ENDBRANCH  53  54
ENDBRANCH  50  53
ENDBRANCH  46  50
ENDBRANCH  45  47
BRANCH  45  62
ATOM     62  CB  THR A   2      37.870  13.935  29.646  0.00  0.00    +0.137 C 
ATOM     63  CG2 THR A   2      37.039  14.472  28.484  0.00  0.00    +0.034 C 
BRANCH  62  64
ATOM     64  OG1 THR A   2      37.616  12.541  29.786  0.00  0.00    -0.382 OA
ATOM     65  HG1 THR A   2      37.883  12.073  28.956  0.00  0.00    +0.210 HD
ENDBRANCH  62  64
ENDBRANCH  45  62
ENDBRANCH  41  45
ENDBRANCH  40  43
BRANCH  40  66
ATOM     66  CB  ASN A   3      41.348  17.702  26.850  0.00  0.00    +0.114 C 
BRANCH  66  67
ATOM     67  CG  ASN A   3      41.455  19.119  26.342  0.00  0.00    +0.222 C 
ATOM     68  ND2 ASN A   3      42.271  19.937  27.002  0.00  0.00    -0.329 N 
ATOM     69 HD21 ASN A   3      42.790  19.593  27.835  0.00  0.00    +0.145 HD
ATOM     70 HD22 ASN A   3      42.390  20.920  26.685  0.00  0.00    +0.145 HD
ATOM     71  OD1 ASN A   3      40.823  19.472  25.359  0.00  0.00    -0.275 OA
ENDBRANCH  66  67
ENDBRANCH  40  66
ENDBRANCH   1  40
TORSDOF 28
REMARK  Name = ../refined-set-2016/3g2h/3g2h_pocket.pdb
REMARK  253 active torsions:
REMARK  status: ('A' for Active; 'I' for Inactive)
REMARK    1  A    between atoms: _1  and  _3
REMARK    2  A    between atoms: _3  and  _4
REMARK    3  A    between atoms: _3  and  _6
REMARK    4  A    between atoms: _6  and  _7
REMARK    5  A    between atoms: _12  and  _13
REMARK    6  A    between atoms: _15  and  _17
REMARK    7  A    between atoms: _17  and  _18
REMARK    8  A    between atoms: _17  and  _20
REMARK    9  A    between atoms: _20  and  _21
REMARK   10  A    between atoms: _21  and  _22
REMARK   11  A    between atoms: _25  and  _27
REMARK   12  A    between atoms: _27  and  _28
REMARK   13  A    between atoms: _27  and  _30
REMARK   14  A    between atoms: _30  and  _31
REMARK   15  A    between atoms: _36  and  _38
REMARK   16  A    between atoms: _38  and  _39
REMARK   17  A    between atoms: _41  and  _43
REMARK   18  A    between atoms: _43  and  _44
REMARK   19  A    between atoms: _46  and  _48
REMARK   20  A    between atoms: _48  and  _49
REMARK   21  A    between atoms: _48  and  _51
REMARK   22  A    between atoms: _51  and  _52
REMARK   23  A    between atoms: _55  and  _57
REMARK   24  A    between atoms: _57  and  _58
REMARK   25  A    between atoms: _60  and  _62
REMARK   26  A    between atoms: _62  and  _63
REMARK   27  A    between atoms: _62  and  _65
REMARK   28  A    between atoms: _65  and  _66
REMARK   29  A    between atoms: _66  and  _67
REMARK   30  A    between atoms: _67  and  _68
REMARK   31  A    between atoms: _77  and  _79
REMARK   32  A    between atoms: _79  and  _80
REMARK   33  A    between atoms: _79  and  _82
REMARK   34  A    between atoms: _82  and  _83
REMARK   35  A    between atoms: _86  and  _88
REMARK   36  A    between atoms: _88  and  _89
REMARK   37  A    between atoms: _92  and  _94
REMARK   38  A    between atoms: _94  and  _95
REMARK   39  A    between atoms: _94  and  _97
REMARK   40  A    between atoms: _97  and  _98
REMARK   41  A    between atoms: _104  and  _106
REMARK   42  A    between atoms: _106  and  _107
REMARK   43  A    between atoms: _106  and  _109
REMARK   44  A    between atoms: _109  and  _110
REMARK   45  A    between atoms: _115  and  _117
REMARK   46  A    between atoms: _117  and  _118
REMARK   47  A    between atoms: _117  and  _120
REMARK   48  A    between atoms: _120  and  _121
REMARK   49  A    between atoms: _124  and  _126
REMARK   50  A    between atoms: _126  and  _127
REMARK   51  A    between atoms: _126  and  _129
REMARK   52  A    between atoms: _129  and  _130
REMARK   53  A    between atoms: _135  and  _137
REMARK   54  A    between atoms: _137  and  _138
REMARK   55  A    between atoms: _137  and  _140
REMARK   56  A    between atoms: _140  and  _141
REMARK   57  A    between atoms: _147  and  _149
REMARK   58  A    between atoms: _149  and  _150
REMARK   59  A    between atoms: _149  and  _152
REMARK   60  A    between atoms: _152  and  _153
REMARK   61  A    between atoms: _159  and  _161
REMARK   62  A    between atoms: _161  and  _162
REMARK   63  A    between atoms: _161  and  _164
REMARK   64  A    between atoms: _164  and  _165
REMARK   65  A    between atoms: _165  and  _166
REMARK   66  A    between atoms: _169  and  _171
REMARK   67  A    between atoms: _171  and  _172
REMARK   68  A    between atoms: _171  and  _174
REMARK   69  A    between atoms: _174  and  _175
REMARK   70  A    between atoms: _175  and  _176
REMARK   71  A    between atoms: _176  and  _177
REMARK   72  A    between atoms: _186  and  _188
REMARK   73  A    between atoms: _188  and  _189
REMARK   74  A    between atoms: _188  and  _191
REMARK   75  A    between atoms: _191  and  _192
REMARK   76  A    between atoms: _197  and  _199
REMARK   77  A    between atoms: _199  and  _200
REMARK   78  A    between atoms: _199  and  _202
REMARK   79  A    between atoms: _202  and  _203
REMARK   80  A    between atoms: _206  and  _208
REMARK   81  A    between atoms: _208  and  _209
REMARK   82  A    between atoms: _208  and  _211
REMARK   83  A    between atoms: _211  and  _212
REMARK   84  A    between atoms: _215  and  _217
REMARK   85  A    between atoms: _217  and  _218
REMARK   86  A    between atoms: _217  and  _220
REMARK   87  A    between atoms: _220  and  _221
REMARK   88  A    between atoms: _226  and  _228
REMARK   89  A    between atoms: _228  and  _229
REMARK   90  A    between atoms: _228  and  _231
REMARK   91  A    between atoms: _231  and  _232
REMARK   92  A    between atoms: _237  and  _238
REMARK   93  A    between atoms: _240  and  _242
REMARK   94  A    between atoms: _242  and  _243
REMARK   95  A    between atoms: _242  and  _245
REMARK   96  A    between atoms: _245  and  _246
REMARK   97  A    between atoms: _249  and  _251
REMARK   98  A    between atoms: _251  and  _252
REMARK   99  A    between atoms: _251  and  _254
REMARK  100  A    between atoms: _254  and  _255
REMARK  101  A    between atoms: _260  and  _262
REMARK  102  A    between atoms: _262  and  _263
REMARK  103  A    between atoms: _262  and  _265
REMARK  104  A    between atoms: _265  and  _266
REMARK  105  A    between atoms: _271  and  _273
REMARK  106  A    between atoms: _273  and  _274
REMARK  107  A    between atoms: _273  and  _276
REMARK  108  A    between atoms: _276  and  _277
REMARK  109  A    between atoms: _280  and  _282
REMARK  110  A    between atoms: _282  and  _283
REMARK  111  A    between atoms: _282  and  _285
REMARK  112  A    between atoms: _288  and  _290
REMARK  113  A    between atoms: _290  and  _291
REMARK  114  A    between atoms: _290  and  _293
REMARK  115  A    between atoms: _293  and  _294
REMARK  116  A    between atoms: _297  and  _299
REMARK  117  A    between atoms: _299  and  _300
REMARK  118  A    between atoms: _299  and  _302
REMARK  119  A    between atoms: _302  and  _303
REMARK  120  A    between atoms: _303  and  _304
REMARK  121  A    between atoms: _307  and  _309
REMARK  122  A    between atoms: _309  and  _310
REMARK  123  A    between atoms: _313  and  _315
REMARK  124  A    between atoms: _315  and  _316
REMARK  125  A    between atoms: _315  and  _318
REMARK  126  A    between atoms: _318  and  _319
REMARK  127  A    between atoms: _322  and  _324
REMARK  128  A    between atoms: _324  and  _325
REMARK  129  A    between atoms: _324  and  _327
REMARK  130  A    between atoms: _327  and  _328
REMARK  131  A    between atoms: _328  and  _329
REMARK  132  A    between atoms: _332  and  _334
REMARK  133  A    between atoms: _334  and  _335
REMARK  134  A    between atoms: _334  and  _337
REMARK  135  A    between atoms: _337  and  _338
REMARK  136  A    between atoms: _343  and  _345
REMARK  137  A    between atoms: _345  and  _346
REMARK  138  A    between atoms: _348  and  _350
REMARK  139  A    between atoms: _350  and  _351
REMARK  140  A    between atoms: _350  and  _353
REMARK  141  A    between atoms: _356  and  _358
REMARK  142  A    between atoms: _358  and  _359
REMARK  143  A    between atoms: _362  and  _364
REMARK  144  A    between atoms: _364  and  _365
REMARK  145  A    between atoms: _364  and  _367
REMARK  146  A    between atoms: _367  and  _368
REMARK  147  A    between atoms: _373  and  _375
REMARK  148  A    between atoms: _375  and  _376
REMARK  149  A    between atoms: _375  and  _378
REMARK  150  A    between atoms: _378  and  _379
REMARK  151  A    between atoms: _379  and  _380
REMARK  152  A    between atoms: _380  and  _381
REMARK  153  A    between atoms: _381  and  _382
REMARK  154  A    between atoms: _386  and  _388
REMARK  155  A    between atoms: _388  and  _389
REMARK  156  A    between atoms: _388  and  _391
REMARK  157  A    between atoms: _391  and  _392
REMARK  158  A    between atoms: _395  and  _397
REMARK  159  A    between atoms: _397  and  _398
REMARK  160  A    between atoms: _397  and  _400
REMARK  161  A    between atoms: _400  and  _401
REMARK  162  A    between atoms: _406  and  _408
REMARK  163  A    between atoms: _408  and  _409
REMARK  164  A    between atoms: _411  and  _413
REMARK  165  A    between atoms: _413  and  _414
REMARK  166  A    between atoms: _413  and  _416
REMARK  167  A    between atoms: _416  and  _417
REMARK  168  A    between atoms: _417  and  _418
REMARK  169  A    between atoms: _418  and  _419
REMARK  170  A    between atoms: _419  and  _420
REMARK  171  A    between atoms: _424  and  _426
REMARK  172  A    between atoms: _426  and  _427
REMARK  173  A    between atoms: _426  and  _429
REMARK  174  A    between atoms: _429  and  _430
REMARK  175  A    between atoms: _430  and  _431
REMARK  176  A    between atoms: _431  and  _432
REMARK  177  A    between atoms: _441  and  _443
REMARK  178  A    between atoms: _443  and  _444
REMARK  179  A    between atoms: _443  and  _446
REMARK  180  A    between atoms: _446  and  _447
REMARK  181  A    between atoms: _452  and  _454
REMARK  182  A    between atoms: _454  and  _455
REMARK  183  A    between atoms: _454  and  _457
REMARK  184  A    between atoms: _457  and  _458
REMARK  185  A    between atoms: _463  and  _464
REMARK  186  A    between atoms: _466  and  _468
REMARK  187  A    between atoms: _468  and  _469
REMARK  188  A    between atoms: _468  and  _471
REMARK  189  A    between atoms: _471  and  _472
REMARK  190  A    between atoms: _472  and  _473
REMARK  191  A    between atoms: _473  and  _474
REMARK  192  A    between atoms: _474  and  _475
REMARK  193  A    between atoms: _479  and  _481
REMARK  194  A    between atoms: _481  and  _482
REMARK  195  A    between atoms: _481  and  _484
REMARK  196  A    between atoms: _484  and  _485
REMARK  197  A    between atoms: _487  and  _489
REMARK  198  A    between atoms: _489  and  _490
REMARK  199  A    between atoms: _489  and  _492
REMARK  200  A    between atoms: _492  and  _493
REMARK  201  A    between atoms: _496  and  _498
REMARK  202  A    between atoms: _498  and  _499
REMARK  203  A    between atoms: _498  and  _501
REMARK  204  A    between atoms: _501  and  _502
REMARK  205  A    between atoms: _502  and  _503
REMARK  206  A    between atoms: _506  and  _508
REMARK  207  A    between atoms: _508  and  _509
REMARK  208  A    between atoms: _512  and  _514
REMARK  209  A    between atoms: _514  and  _515
REMARK  210  A    between atoms: _514  and  _517
REMARK  211  A    between atoms: _517  and  _518
REMARK  212  A    between atoms: _520  and  _522
REMARK  213  A    between atoms: _522  and  _523
REMARK  214  A    between atoms: _525  and  _527
REMARK  215  A    between atoms: _527  and  _528
REMARK  216  A    between atoms: _527  and  _530
REMARK  217  A    between atoms: _530  and  _531
REMARK  218  A    between atoms: _534  and  _536
REMARK  219  A    between atoms: _536  and  _537
REMARK  220  A    between atoms: _539  and  _541
REMARK  221  A    between atoms: _541  and  _542
REMARK  222  A    between atoms: _541  and  _544
REMARK  223  A    between atoms: _544  and  _545
REMARK  224  A    between atoms: _550  and  _552
REMARK  225  A    between atoms: _552  and  _553
REMARK  226  A    between atoms: _552  and  _555
REMARK  227  A    between atoms: _555  and  _556
REMARK  228  A    between atoms: _556  and  _557
REMARK  229  A    between atoms: _564  and  _565
REMARK  230  A    between atoms: _565  and  _581
REMARK  231  A    between atoms: _566  and  _568
REMARK  232  A    between atoms: _568  and  _569
REMARK  233  A    between atoms: _569  and  _570
REMARK  234  A    between atoms: _574  and  _576
REMARK  235  A    between atoms: _576  and  _577
REMARK  236  A    between atoms: _576  and  _584
REMARK  237  A    between atoms: _577  and  _578
REMARK  238  A    between atoms: _578  and  _579
REMARK  239  A    between atoms: _579  and  _580
REMARK  240  A    between atoms: _580  and  _581
REMARK  241  A    between atoms: _586  and  _588
REMARK  242  A    between atoms: _588  and  _589
REMARK  243  A    between atoms: _588  and  _591
REMARK  244  A    between atoms: _591  and  _592
REMARK  245  A    between atoms: _595  and  _597
REMARK  246  A    between atoms: _597  and  _598
REMARK  247  A    between atoms: _600  and  _602
REMARK  248  A    between atoms: _602  and  _603
REMARK  249  A    between atoms: _606  and  _608
REMARK  250  A    between atoms: _608  and  _609
REMARK  251  A    between atoms: _608  and  _611
REMARK  252  A    between atoms: _611  and  _612
REMARK  253  A    between atoms: _617  and  _618
REMARK                            x       y       z     vdW  Elec       q    Type
REMARK                         _______ _______ _______ _____ _____    ______ ____
ROOT
ATOM      1  C   ALA A   2      42.291  27.212  30.646  0.00  0.00    +0.241 C 
ATOM      2  O   ALA A   2      41.906  26.690  31.687  0.00  0.00    -0.273 OA
ATOM      3  N   LEU A   3      43.427  26.872  30.046  0.00  0.00    -0.297 N 
ATOM      4  H   LEU A   3      43.724  27.388  29.193  0.00  0.00    +0.150 HD
ENDROOT
BRANCH   1   5
ATOM      5  CA  ALA A   2      41.458  28.295  29.969  0.00  0.00    +0.149 C 
ATOM      6  CB  ALA A   2      40.299  27.665  29.207  0.00  0.00    +0.031 C 
BRANCH   5   9
ATOM      7  C   GLU A   1      42.860  30.250  29.508  0.00  0.00    +0.238 C 
ATOM      8  O   GLU A   1      42.815  30.634  30.682  0.00  0.00    -0.274 OA
ATOM      9  N   ALA A   2      42.254  29.143  29.078  0.00  0.00    -0.297 N 
ATOM     10  H   ALA A   2      42.349  28.873  28.078  0.00  0.00    +0.150 HD
BRANCH   7  11
ATOM     11  CA  GLU A   1      43.646  31.045  28.458  0.00  0.00    +0.145 C 
BRANCH  11  12
ATOM     12  N   GLU A   1      43.899  30.278  27.235  0.00  0.00    -0.238 NA
ATOM     13  H   GLU A   1      43.411  30.544  26.356  0.00  0.00    +0.142 HD
ENDBRANCH  11  12
BRANCH  11  14
ATOM     14  CB  GLU A   1      42.955  32.383  28.149  0.00  0.00    +0.038 C 
BRANCH  14  15
ATOM     15  CG  GLU A   1      41.525  32.290  27.590  0.00  0.00    +0.116 C 
BRANCH  15  16
ATOM     16  CD  GLU A   1      41.465  32.199  26.070  0.00  0.00    +0.365 C 
ATOM     17  OE2 GLU A   1      40.433  32.603  25.498  0.00  0.00    -0.246 OA
ATOM     18  OE1 GLU A   1      42.433  31.724  25.442  0.00  0.00    -0.246 OA
ENDBRANCH  15  16
ENDBRANCH  14  15
ENDBRANCH  11  14
ENDBRANCH   7  11
ENDBRANCH   5   9
ENDBRANCH   1   5
BRANCH   3  19
ATOM     19  CA  LEU A   3      44.268  25.793  30.553  0.00  0.00    +0.149 C 
BRANCH  19  20
ATOM     20  C   LEU A   3      44.887  26.139  31.907  0.00  0.00    +0.241 C 
ATOM     21  N   GLU A   4      44.892  25.168  32.817  0.00  0.00    -0.298 N 
ATOM     22  H   GLU A   4      44.525  24.229  32.562  0.00  0.00    +0.150 HD
ATOM     23  O   LEU A   3      45.323  27.265  32.131  0.00  0.00    -0.273 OA
BRANCH  21  24
ATOM     24  CA  GLU A   4      45.402  25.394  34.163  0.00  0.00    +0.137 C 
BRANCH  24  25
ATOM     25  C   GLU A   4      46.914  25.318  34.197  0.00  0.00    +0.227 C 
ATOM     26  O   GLU A   4      47.496  24.288  33.873  0.00  0.00    -0.286 OA
ENDBRANCH  24  25
BRANCH  24  27
ATOM     27  CB  GLU A   4      44.818  24.383  35.144  0.00  0.00    +0.039 C 
BRANCH  27  28
ATOM     28  CG  GLU A   4      43.339  24.564  35.395  0.00  0.00    +0.116 C 
BRANCH  28  29
ATOM     29  CD  GLU A   4      42.889  23.780  36.587  0.00  0.00    +0.365 C 
ATOM     30  OE2 GLU A   4      42.514  24.411  37.591  0.00  0.00    -0.246 OA
ATOM     31  OE1 GLU A   4      42.927  22.534  36.521  0.00  0.00    -0.246 OA
ENDBRANCH  28  29
ENDBRANCH  27  28
ENDBRANCH  24  27
ENDBRANCH  21  24
ENDBRANCH  19  20
BRANCH  19  32
ATOM     32  CB  LEU A   3      45.339  25.417  29.525  0.00  0.00    +0.029 C 
BRANCH  32  33
ATOM     33  CG  LEU A   3      44.814  24.848  28.199  0.00  0.00    +0.002 C 
ATOM     34  CD2 LEU A   3      43.974  23.589  28.414  0.00  0.00    +0.000 C 
ATOM     35  CD1 LEU A   3      45.964  24.557  27.242  0.00  0.00    +0.000 C 
ENDBRANCH  32  33
ENDBRANCH  19  32
ENDBRANCH   3  19
TORSDOF 16
REMARK  Name = ../refined-set-2016/3g2h/3g2h_pocket.pdb
REMARK  253 active torsions:
REMARK  status: ('A' for Active; 'I' for Inactive)
REMARK    1  A    between atoms: _1  and  _3
REMARK    2  A    between atoms: _3  and  _4
REMARK    3  A    between atoms: _3  and  _6
REMARK    4  A    between atoms: _6  and  _7
REMARK    5  A    between atoms: _12  and  _13
REMARK    6  A    between atoms: _15  and  _17
REMARK    7  A    between atoms: _17  and  _18
REMARK    8  A    between atoms: _17  and  _20
REMARK    9  A    between atoms: _20  and  _21
REMARK   10  A    between atoms: _21  and  _22
REMARK   11  A    between atoms: _25  and  _27
REMARK   12  A    between atoms: _27  and  _28
REMARK   13  A    between atoms: _27  and  _30
REMARK   14  A    between atoms: _30  and  _31
REMARK   15  A    between atoms: _36  and  _38
REMARK   16  A    between atoms: _38  and  _39
REMARK   17  A    between atoms: _41  and  _43
REMARK   18  A    between atoms: _43  and  _44
REMARK   19  A    between atoms: _46  and  _48
REMARK   20  A    between atoms: _48  and  _49
REMARK   21  A    between atoms: _48  and  _51
REMARK   22  A    between atoms: _51  and  _52
REMARK   23  A    between atoms: _55  and  _57
REMARK   24  A    between atoms: _57  and  _58
REMARK   25  A    between atoms: _60  and  _62
REMARK   26  A    between atoms: _62  and  _63
REMARK   27  A    between atoms: _62  and  _65
REMARK   28  A    between atoms: _65  and  _66
REMARK   29  A    between atoms: _66  and  _67
REMARK   30  A    between atoms: _67  and  _68
REMARK   31  A    between atoms: _77  and  _79
REMARK   32  A    between atoms: _79  and  _80
REMARK   33  A    between atoms: _79  and  _82
REMARK   34  A    between atoms: _82  and  _83
REMARK   35  A    between atoms: _86  and  _88
REMARK   36  A    between atoms: _88  and  _89
REMARK   37  A    between atoms: _92  and  _94
REMARK   38  A    between atoms: _94  and  _95
REMARK   39  A    between atoms: _94  and  _97
REMARK   40  A    between atoms: _97  and  _98
REMARK   41  A    between atoms: _104  and  _106
REMARK   42  A    between atoms: _106  and  _107
REMARK   43  A    between atoms: _106  and  _109
REMARK   44  A    between atoms: _109  and  _110
REMARK   45  A    between atoms: _115  and  _117
REMARK   46  A    between atoms: _117  and  _118
REMARK   47  A    between atoms: _117  and  _120
REMARK   48  A    between atoms: _120  and  _121
REMARK   49  A    between atoms: _124  and  _126
REMARK   50  A    between atoms: _126  and  _127
REMARK   51  A    between atoms: _126  and  _129
REMARK   52  A    between atoms: _129  and  _130
REMARK   53  A    between atoms: _135  and  _137
REMARK   54  A    between atoms: _137  and  _138
REMARK   55  A    between atoms: _137  and  _140
REMARK   56  A    between atoms: _140  and  _141
REMARK   57  A    between atoms: _147  and  _149
REMARK   58  A    between atoms: _149  and  _150
REMARK   59  A    between atoms: _149  and  _152
REMARK   60  A    between atoms: _152  and  _153
REMARK   61  A    between atoms: _159  and  _161
REMARK   62  A    between atoms: _161  and  _162
REMARK   63  A    between atoms: _161  and  _164
REMARK   64  A    between atoms: _164  and  _165
REMARK   65  A    between atoms: _165  and  _166
REMARK   66  A    between atoms: _169  and  _171
REMARK   67  A    between atoms: _171  and  _172
REMARK   68  A    between atoms: _171  and  _174
REMARK   69  A    between atoms: _174  and  _175
REMARK   70  A    between atoms: _175  and  _176
REMARK   71  A    between atoms: _176  and  _177
REMARK   72  A    between atoms: _186  and  _188
REMARK   73  A    between atoms: _188  and  _189
REMARK   74  A    between atoms: _188  and  _191
REMARK   75  A    between atoms: _191  and  _192
REMARK   76  A    between atoms: _197  and  _199
REMARK   77  A    between atoms: _199  and  _200
REMARK   78  A    between atoms: _199  and  _202
REMARK   79  A    between atoms: _202  and  _203
REMARK   80  A    between atoms: _206  and  _208
REMARK   81  A    between atoms: _208  and  _209
REMARK   82  A    between atoms: _208  and  _211
REMARK   83  A    between atoms: _211  and  _212
REMARK   84  A    between atoms: _215  and  _217
REMARK   85  A    between atoms: _217  and  _218
REMARK   86  A    between atoms: _217  and  _220
REMARK   87  A    between atoms: _220  and  _221
REMARK   88  A    between atoms: _226  and  _228
REMARK   89  A    between atoms: _228  and  _229
REMARK   90  A    between atoms: _228  and  _231
REMARK   91  A    between atoms: _231  and  _232
REMARK   92  A    between atoms: _237  and  _238
REMARK   93  A    between atoms: _240  and  _242
REMARK   94  A    between atoms: _242  and  _243
REMARK   95  A    between atoms: _242  and  _245
REMARK   96  A    between atoms: _245  and  _246
REMARK   97  A    between atoms: _249  and  _251
REMARK   98  A    between atoms: _251  and  _252
REMARK   99  A    between atoms: _251  and  _254
REMARK  100  A    between atoms: _254  and  _255
REMARK  101  A    between atoms: _260  and  _262
REMARK  102  A    between atoms: _262  and  _263
REMARK  103  A    between atoms: _262  and  _265
REMARK  104  A    between atoms: _265  and  _266
REMARK  105  A    between atoms: _271  and  _273
REMARK  106  A    between atoms: _273  and  _274
REMARK  107  A    between atoms: _273  and  _276
REMARK  108  A    between atoms: _276  and  _277
REMARK  109  A    between atoms: _280  and  _282
REMARK  110  A    between atoms: _282  and  _283
REMARK  111  A    between atoms: _282  and  _285
REMARK  112  A    between atoms: _288  and  _290
REMARK  113  A    between atoms: _290  and  _291
REMARK  114  A    between atoms: _290  and  _293
REMARK  115  A    between atoms: _293  and  _294
REMARK  116  A    between atoms: _297  and  _299
REMARK  117  A    between atoms: _299  and  _300
REMARK  118  A    between atoms: _299  and  _302
REMARK  119  A    between atoms: _302  and  _303
REMARK  120  A    between atoms: _303  and  _304
REMARK  121  A    between atoms: _307  and  _309
REMARK  122  A    between atoms: _309  and  _310
REMARK  123  A    between atoms: _313  and  _315
REMARK  124  A    between atoms: _315  and  _316
REMARK  125  A    between atoms: _315  and  _318
REMARK  126  A    between atoms: _318  and  _319
REMARK  127  A    between atoms: _322  and  _324
REMARK  128  A    between atoms: _324  and  _325
REMARK  129  A    between atoms: _324  and  _327
REMARK  130  A    between atoms: _327  and  _328
REMARK  131  A    between atoms: _328  and  _329
REMARK  132  A    between atoms: _332  and  _334
REMARK  133  A    between atoms: _334  and  _335
REMARK  134  A    between atoms: _334  and  _337
REMARK  135  A    between atoms: _337  and  _338
REMARK  136  A    between atoms: _343  and  _345
REMARK  137  A    between atoms: _345  and  _346
REMARK  138  A    between atoms: _348  and  _350
REMARK  139  A    between atoms: _350  and  _351
REMARK  140  A    between atoms: _350  and  _353
REMARK  141  A    between atoms: _356  and  _358
REMARK  142  A    between atoms: _358  and  _359
REMARK  143  A    between atoms: _362  and  _364
REMARK  144  A    between atoms: _364  and  _365
REMARK  145  A    between atoms: _364  and  _367
REMARK  146  A    between atoms: _367  and  _368
REMARK  147  A    between atoms: _373  and  _375
REMARK  148  A    between atoms: _375  and  _376
REMARK  149  A    between atoms: _375  and  _378
REMARK  150  A    between atoms: _378  and  _379
REMARK  151  A    between atoms: _379  and  _380
REMARK  152  A    between atoms: _380  and  _381
REMARK  153  A    between atoms: _381  and  _382
REMARK  154  A    between atoms: _386  and  _388
REMARK  155  A    between atoms: _388  and  _389
REMARK  156  A    between atoms: _388  and  _391
REMARK  157  A    between atoms: _391  and  _392
REMARK  158  A    between atoms: _395  and  _397
REMARK  159  A    between atoms: _397  and  _398
REMARK  160  A    between atoms: _397  and  _400
REMARK  161  A    between atoms: _400  and  _401
REMARK  162  A    between atoms: _406  and  _408
REMARK  163  A    between atoms: _408  and  _409
REMARK  164  A    between atoms: _411  and  _413
REMARK  165  A    between atoms: _413  and  _414
REMARK  166  A    between atoms: _413  and  _416
REMARK  167  A    between atoms: _416  and  _417
REMARK  168  A    between atoms: _417  and  _418
REMARK  169  A    between atoms: _418  and  _419
REMARK  170  A    between atoms: _419  and  _420
REMARK  171  A    between atoms: _424  and  _426
REMARK  172  A    between atoms: _426  and  _427
REMARK  173  A    between atoms: _426  and  _429
REMARK  174  A    between atoms: _429  and  _430
REMARK  175  A    between atoms: _430  and  _431
REMARK  176  A    between atoms: _431  and  _432
REMARK  177  A    between atoms: _441  and  _443
REMARK  178  A    between atoms: _443  and  _444
REMARK  179  A    between atoms: _443  and  _446
REMARK  180  A    between atoms: _446  and  _447
REMARK  181  A    between atoms: _452  and  _454
REMARK  182  A    between atoms: _454  and  _455
REMARK  183  A    between atoms: _454  and  _457
REMARK  184  A    between atoms: _457  and  _458
REMARK  185  A    between atoms: _463  and  _464
REMARK  186  A    between atoms: _466  and  _468
REMARK  187  A    between atoms: _468  and  _469
REMARK  188  A    between atoms: _468  and  _471
REMARK  189  A    between atoms: _471  and  _472
REMARK  190  A    between atoms: _472  and  _473
REMARK  191  A    between atoms: _473  and  _474
REMARK  192  A    between atoms: _474  and  _475
REMARK  193  A    between atoms: _479  and  _481
REMARK  194  A    between atoms: _481  and  _482
REMARK  195  A    between atoms: _481  and  _484
REMARK  196  A    between atoms: _484  and  _485
REMARK  197  A    between atoms: _487  and  _489
REMARK  198  A    between atoms: _489  and  _490
REMARK  199  A    between atoms: _489  and  _492
REMARK  200  A    between atoms: _492  and  _493
REMARK  201  A    between atoms: _496  and  _498
REMARK  202  A    between atoms: _498  and  _499
REMARK  203  A    between atoms: _498  and  _501
REMARK  204  A    between atoms: _501  and  _502
REMARK  205  A    between atoms: _502  and  _503
REMARK  206  A    between atoms: _506  and  _508
REMARK  207  A    between atoms: _508  and  _509
REMARK  208  A    between atoms: _512  and  _514
REMARK  209  A    between atoms: _514  and  _515
REMARK  210  A    between atoms: _514  and  _517
REMARK  211  A    between atoms: _517  and  _518
REMARK  212  A    between atoms: _520  and  _522
REMARK  213  A    between atoms: _522  and  _523
REMARK  214  A    between atoms: _525  and  _527
REMARK  215  A    between atoms: _527  and  _528
REMARK  216  A    between atoms: _527  and  _530
REMARK  217  A    between atoms: _530  and  _531
REMARK  218  A    between atoms: _534  and  _536
REMARK  219  A    between atoms: _536  and  _537
REMARK  220  A    between atoms: _539  and  _541
REMARK  221  A    between atoms: _541  and  _542
REMARK  222  A    between atoms: _541  and  _544
REMARK  223  A    between atoms: _544  and  _545
REMARK  224  A    between atoms: _550  and  _552
REMARK  225  A    between atoms: _552  and  _553
REMARK  226  A    between atoms: _552  and  _555
REMARK  227  A    between atoms: _555  and  _556
REMARK  228  A    between atoms: _556  and  _557
REMARK  229  A    between atoms: _564  and  _565
REMARK  230  A    between atoms: _565  and  _581
REMARK  231  A    between atoms: _566  and  _568
REMARK  232  A    between atoms: _568  and  _569
REMARK  233  A    between atoms: _569  and  _570
REMARK  234  A    between atoms: _574  and  _576
REMARK  235  A    between atoms: _576  and  _577
REMARK  236  A    between atoms: _576  and  _584
REMARK  237  A    between atoms: _577  and  _578
REMARK  238  A    between atoms: _578  and  _579
REMARK  239  A    between atoms: _579  and  _580
REMARK  240  A    between atoms: _580  and  _581
REMARK  241  A    between atoms: _586  and  _588
REMARK  242  A    between atoms: _588  and  _589
REMARK  243  A    between atoms: _588  and  _591
REMARK  244  A    between atoms: _591  and  _592
REMARK  245  A    between atoms: _595  and  _597
REMARK  246  A    between atoms: _597  and  _598
REMARK  247  A    between atoms: _600  and  _602
REMARK  248  A    between atoms: _602  and  _603
REMARK  249  A    between atoms: _606  and  _608
REMARK  250  A    between atoms: _608  and  _609
REMARK  251  A    between atoms: _608  and  _611
REMARK  252  A    between atoms: _611  and  _612
REMARK  253  A    between atoms: _617  and  _618
REMARK                            x       y       z     vdW  Elec       q    Type
REMARK                         _______ _______ _______ _____ _____    ______ ____
ROOT
ATOM      1  C   GLY A   2      37.341  14.401  23.383  0.00  0.00    +0.243 C 
ATOM      2  O   GLY A   2      37.010  13.223  23.539  0.00  0.00    -0.273 OA
ATOM      3  N   VAL A   3      36.472  15.366  23.122  0.00  0.00    -0.297 N 
ATOM      4  H   VAL A   3      36.817  16.269  22.739  0.00  0.00    +0.150 HD
ENDROOT
BRANCH   1   5
ATOM      5  CA  GLY A   2      38.797  14.816  23.456  0.00  0.00    +0.176 C 
BRANCH   5   8
ATOM      6  C   ASN A   1      39.918  13.279  24.956  0.00  0.00    +0.239 C 
ATOM      7  O   ASN A   1      39.890  14.051  25.920  0.00  0.00    -0.274 OA
ATOM      8  N   GLY A   2      39.578  13.627  23.725  0.00  0.00    -0.296 N 
ATOM      9  H   GLY A   2      39.880  13.030  22.929  0.00  0.00    +0.150 HD
BRANCH   6  10
ATOM     10  CA  ASN A   1      40.401  11.857  25.108  0.00  0.00    +0.154 C 
BRANCH  10  11
ATOM     11  N   ASN A   1      41.392  11.720  26.149  0.00  0.00    -0.238 NA
ATOM     12  H   ASN A   1      41.228  12.130  27.090  0.00  0.00    +0.142 HD
ENDBRANCH  10  11
BRANCH  10  13
ATOM     13  CB  ASN A   1      39.230  10.877  25.315  0.00  0.00    +0.111 C 
BRANCH  13  14
ATOM     14  CG  ASN A   1      38.316  11.283  26.447  0.00  0.00    +0.221 C 
ATOM     15  OD1 ASN A   1      38.634  11.089  27.614  0.00  0.00    -0.275 OA
ATOM     16  ND2 ASN A   1      37.162  11.838  26.102  0.00  0.00    -0.329 N 
ATOM     17 HD21 ASN A   1      36.484  12.128  26.836  0.00  0.00    +0.145 HD
ATOM     18 HD22 ASN A   1      36.935  11.983  25.098  0.00  0.00    +0.145 HD
ENDBRANCH  13  14
ENDBRANCH  10  13
ENDBRANCH   6  10
ENDBRANCH   5   8
ENDBRANCH   1   5
BRANCH   3  19
ATOM     19  CA  VAL A   3      35.040  15.192  23.360  0.00  0.00    +0.149 C 
BRANCH  19  20
ATOM     20  C   VAL A   3      34.197  15.290  22.096  0.00  0.00    +0.241 C 
ATOM     21  O   VAL A   3      32.964  15.307  22.154  0.00  0.00    -0.273 OA
ATOM     22  N   ALA A   4      34.880  15.347  20.957  0.00  0.00    -0.298 N 
ATOM     23  H   ALA A   4      35.915  15.430  21.008  0.00  0.00    +0.150 HD
BRANCH  22  24
ATOM     24  CA  ALA A   4      34.255  15.299  19.638  0.00  0.00    +0.137 C 
ATOM     25  CB  ALA A   4      33.599  16.621  19.295  0.00  0.00    +0.030 C 
BRANCH  24  26
ATOM     26  C   ALA A   4      35.368  14.991  18.660  0.00  0.00    +0.227 C 
ATOM     27  O   ALA A   4      36.520  15.342  18.906  0.00  0.00    -0.286 OA
ENDBRANCH  24  26
ENDBRANCH  22  24
ENDBRANCH  19  20
BRANCH  19  28
ATOM     28  CB  VAL A   3      34.545  16.170  24.449  0.00  0.00    +0.027 C 
ATOM     29  CG2 VAL A   3      35.097  15.743  25.808  0.00  0.00    +0.002 C 
ATOM     30  CG1 VAL A   3      34.953  17.614  24.123  0.00  0.00    +0.002 C 
ENDBRANCH  19  28
ENDBRANCH   3  19
TORSDOF 11
REMARK  Name = ../refined-set-2016/3g2h/3g2h_pocket.pdb
REMARK  253 active torsions:
REMARK  status: ('A' for Active; 'I' for Inactive)
REMARK    1  A    between atoms: _1  and  _3
REMARK    2  A    between atoms: _3  and  _4
REMARK    3  A    between atoms: _3  and  _6
REMARK    4  A    between atoms: _6  and  _7
REMARK    5  A    between atoms: _12  and  _13
REMARK    6  A    between atoms: _15  and  _17
REMARK    7  A    between atoms: _17  and  _18
REMARK    8  A    between atoms: _17  and  _20
REMARK    9  A    between atoms: _20  and  _21
REMARK   10  A    between atoms: _21  and  _22
REMARK   11  A    between atoms: _25  and  _27
REMARK   12  A    between atoms: _27  and  _28
REMARK   13  A    between atoms: _27  and  _30
REMARK   14  A    between atoms: _30  and  _31
REMARK   15  A    between atoms: _36  and  _38
REMARK   16  A    between atoms: _38  and  _39
REMARK   17  A    between atoms: _41  and  _43
REMARK   18  A    between atoms: _43  and  _44
REMARK   19  A    between atoms: _46  and  _48
REMARK   20  A    between atoms: _48  and  _49
REMARK   21  A    between atoms: _48  and  _51
REMARK   22  A    between atoms: _51  and  _52
REMARK   23  A    between atoms: _55  and  _57
REMARK   24  A    between atoms: _57  and  _58
REMARK   25  A    between atoms: _60  and  _62
REMARK   26  A    between atoms: _62  and  _63
REMARK   27  A    between atoms: _62  and  _65
REMARK   28  A    between atoms: _65  and  _66
REMARK   29  A    between atoms: _66  and  _67
REMARK   30  A    between atoms: _67  and  _68
REMARK   31  A    between atoms: _77  and  _79
REMARK   32  A    between atoms: _79  and  _80
REMARK   33  A    between atoms: _79  and  _82
REMARK   34  A    between atoms: _82  and  _83
REMARK   35  A    between atoms: _86  and  _88
REMARK   36  A    between atoms: _88  and  _89
REMARK   37  A    between atoms: _92  and  _94
REMARK   38  A    between atoms: _94  and  _95
REMARK   39  A    between atoms: _94  and  _97
REMARK   40  A    between atoms: _97  and  _98
REMARK   41  A    between atoms: _104  and  _106
REMARK   42  A    between atoms: _106  and  _107
REMARK   43  A    between atoms: _106  and  _109
REMARK   44  A    between atoms: _109  and  _110
REMARK   45  A    between atoms: _115  and  _117
REMARK   46  A    between atoms: _117  and  _118
REMARK   47  A    between atoms: _117  and  _120
REMARK   48  A    between atoms: _120  and  _121
REMARK   49  A    between atoms: _124  and  _126
REMARK   50  A    between atoms: _126  and  _127
REMARK   51  A    between atoms: _126  and  _129
REMARK   52  A    between atoms: _129  and  _130
REMARK   53  A    between atoms: _135  and  _137
REMARK   54  A    between atoms: _137  and  _138
REMARK   55  A    between atoms: _137  and  _140
REMARK   56  A    between atoms: _140  and  _141
REMARK   57  A    between atoms: _147  and  _149
REMARK   58  A    between atoms: _149  and  _150
REMARK   59  A    between atoms: _149  and  _152
REMARK   60  A    between atoms: _152  and  _153
REMARK   61  A    between atoms: _159  and  _161
REMARK   62  A    between atoms: _161  and  _162
REMARK   63  A    between atoms: _161  and  _164
REMARK   64  A    between atoms: _164  and  _165
REMARK   65  A    between atoms: _165  and  _166
REMARK   66  A    between atoms: _169  and  _171
REMARK   67  A    between atoms: _171  and  _172
REMARK   68  A    between atoms: _171  and  _174
REMARK   69  A    between atoms: _174  and  _175
REMARK   70  A    between atoms: _175  and  _176
REMARK   71  A    between atoms: _176  and  _177
REMARK   72  A    between atoms: _186  and  _188
REMARK   73  A    between atoms: _188  and  _189
REMARK   74  A    between atoms: _188  and  _191
REMARK   75  A    between atoms: _191  and  _192
REMARK   76  A    between atoms: _197  and  _199
REMARK   77  A    between atoms: _199  and  _200
REMARK   78  A    between atoms: _199  and  _202
REMARK   79  A    between atoms: _202  and  _203
REMARK   80  A    between atoms: _206  and  _208
REMARK   81  A    between atoms: _208  and  _209
REMARK   82  A    between atoms: _208  and  _211
REMARK   83  A    between atoms: _211  and  _212
REMARK   84  A    between atoms: _215  and  _217
REMARK   85  A    between atoms: _217  and  _218
REMARK   86  A    between atoms: _217  and  _220
REMARK   87  A    between atoms: _220  and  _221
REMARK   88  A    between atoms: _226  and  _228
REMARK   89  A    between atoms: _228  and  _229
REMARK   90  A    between atoms: _228  and  _231
REMARK   91  A    between atoms: _231  and  _232
REMARK   92  A    between atoms: _237  and  _238
REMARK   93  A    between atoms: _240  and  _242
REMARK   94  A    between atoms: _242  and  _243
REMARK   95  A    between atoms: _242  and  _245
REMARK   96  A    between atoms: _245  and  _246
REMARK   97  A    between atoms: _249  and  _251
REMARK   98  A    between atoms: _251  and  _252
REMARK   99  A    between atoms: _251  and  _254
REMARK  100  A    between atoms: _254  and  _255
REMARK  101  A    between atoms: _260  and  _262
REMARK  102  A    between atoms: _262  and  _263
REMARK  103  A    between atoms: _262  and  _265
REMARK  104  A    between atoms: _265  and  _266
REMARK  105  A    between atoms: _271  and  _273
REMARK  106  A    between atoms: _273  and  _274
REMARK  107  A    between atoms: _273  and  _276
REMARK  108  A    between atoms: _276  and  _277
REMARK  109  A    between atoms: _280  and  _282
REMARK  110  A    between atoms: _282  and  _283
REMARK  111  A    between atoms: _282  and  _285
REMARK  112  A    between atoms: _288  and  _290
REMARK  113  A    between atoms: _290  and  _291
REMARK  114  A    between atoms: _290  and  _293
REMARK  115  A    between atoms: _293  and  _294
REMARK  116  A    between atoms: _297  and  _299
REMARK  117  A    between atoms: _299  and  _300
REMARK  118  A    between atoms: _299  and  _302
REMARK  119  A    between atoms: _302  and  _303
REMARK  120  A    between atoms: _303  and  _304
REMARK  121  A    between atoms: _307  and  _309
REMARK  122  A    between atoms: _309  and  _310
REMARK  123  A    between atoms: _313  and  _315
REMARK  124  A    between atoms: _315  and  _316
REMARK  125  A    between atoms: _315  and  _318
REMARK  126  A    between atoms: _318  and  _319
REMARK  127  A    between atoms: _322  and  _324
REMARK  128  A    between atoms: _324  and  _325
REMARK  129  A    between atoms: _324  and  _327
REMARK  130  A    between atoms: _327  and  _328
REMARK  131  A    between atoms: _328  and  _329
REMARK  132  A    between atoms: _332  and  _334
REMARK  133  A    between atoms: _334  and  _335
REMARK  134  A    between atoms: _334  and  _337
REMARK  135  A    between atoms: _337  and  _338
REMARK  136  A    between atoms: _343  and  _345
REMARK  137  A    between atoms: _345  and  _346
REMARK  138  A    between atoms: _348  and  _350
REMARK  139  A    between atoms: _350  and  _351
REMARK  140  A    between atoms: _350  and  _353
REMARK  141  A    between atoms: _356  and  _358
REMARK  142  A    between atoms: _358  and  _359
REMARK  143  A    between atoms: _362  and  _364
REMARK  144  A    between atoms: _364  and  _365
REMARK  145  A    between atoms: _364  and  _367
REMARK  146  A    between atoms: _367  and  _368
REMARK  147  A    between atoms: _373  and  _375
REMARK  148  A    between atoms: _375  and  _376
REMARK  149  A    between atoms: _375  and  _378
REMARK  150  A    between atoms: _378  and  _379
REMARK  151  A    between atoms: _379  and  _380
REMARK  152  A    between atoms: _380  and  _381
REMARK  153  A    between atoms: _381  and  _382
REMARK  154  A    between atoms: _386  and  _388
REMARK  155  A    between atoms: _388  and  _389
REMARK  156  A    between atoms: _388  and  _391
REMARK  157  A    between atoms: _391  and  _392
REMARK  158  A    between atoms: _395  and  _397
REMARK  159  A    between atoms: _397  and  _398
REMARK  160  A    between atoms: _397  and  _400
REMARK  161  A    between atoms: _400  and  _401
REMARK  162  A    between atoms: _406  and  _408
REMARK  163  A    between atoms: _408  and  _409
REMARK  164  A    between atoms: _411  and  _413
REMARK  165  A    between atoms: _413  and  _414
REMARK  166  A    between atoms: _413  and  _416
REMARK  167  A    between atoms: _416  and  _417
REMARK  168  A    between atoms: _417  and  _418
REMARK  169  A    between atoms: _418  and  _419
REMARK  170  A    between atoms: _419  and  _420
REMARK  171  A    between atoms: _424  and  _426
REMARK  172  A    between atoms: _426  and  _427
REMARK  173  A    between atoms: _426  and  _429
REMARK  174  A    between atoms: _429  and  _430
REMARK  175  A    between atoms: _430  and  _431
REMARK  176  A    between atoms: _431  and  _432
REMARK  177  A    between atoms: _441  and  _443
REMARK  178  A    between atoms: _443  and  _444
REMARK  179  A    between atoms: _443  and  _446
REMARK  180  A    between atoms: _446  and  _447
REMARK  181  A    between atoms: _452  and  _454
REMARK  182  A    between atoms: _454  and  _455
REMARK  183  A    between atoms: _454  and  _457
REMARK  184  A    between atoms: _457  and  _458
REMARK  185  A    between atoms: _463  and  _464
REMARK  186  A    between atoms: _466  and  _468
REMARK  187  A    between atoms: _468  and  _469
REMARK  188  A    between atoms: _468  and  _471
REMARK  189  A    between atoms: _471  and  _472
REMARK  190  A    between atoms: _472  and  _473
REMARK  191  A    between atoms: _473  and  _474
REMARK  192  A    between atoms: _474  and  _475
REMARK  193  A    between atoms: _479  and  _481
REMARK  194  A    between atoms: _481  and  _482
REMARK  195  A    between atoms: _481  and  _484
REMARK  196  A    between atoms: _484  and  _485
REMARK  197  A    between atoms: _487  and  _489
REMARK  198  A    between atoms: _489  and  _490
REMARK  199  A    between atoms: _489  and  _492
REMARK  200  A    between atoms: _492  and  _493
REMARK  201  A    between atoms: _496  and  _498
REMARK  202  A    between atoms: _498  and  _499
REMARK  203  A    between atoms: _498  and  _501
REMARK  204  A    between atoms: _501  and  _502
REMARK  205  A    between atoms: _502  and  _503
REMARK  206  A    between atoms: _506  and  _508
REMARK  207  A    between atoms: _508  and  _509
REMARK  208  A    between atoms: _512  and  _514
REMARK  209  A    between atoms: _514  and  _515
REMARK  210  A    between atoms: _514  and  _517
REMARK  211  A    between atoms: _517  and  _518
REMARK  212  A    between atoms: _520  and  _522
REMARK  213  A    between atoms: _522  and  _523
REMARK  214  A    between atoms: _525  and  _527
REMARK  215  A    between atoms: _527  and  _528
REMARK  216  A    between atoms: _527  and  _530
REMARK  217  A    between atoms: _530  and  _531
REMARK  218  A    between atoms: _534  and  _536
REMARK  219  A    between atoms: _536  and  _537
REMARK  220  A    between atoms: _539  and  _541
REMARK  221  A    between atoms: _541  and  _542
REMARK  222  A    between atoms: _541  and  _544
REMARK  223  A    between atoms: _544  and  _545
REMARK  224  A    between atoms: _550  and  _552
REMARK  225  A    between atoms: _552  and  _553
REMARK  226  A    between atoms: _552  and  _555
REMARK  227  A    between atoms: _555  and  _556
REMARK  228  A    between atoms: _556  and  _557
REMARK  229  A    between atoms: _564  and  _565
REMARK  230  A    between atoms: _565  and  _581
REMARK  231  A    between atoms: _566  and  _568
REMARK  232  A    between atoms: _568  and  _569
REMARK  233  A    between atoms: _569  and  _570
REMARK  234  A    between atoms: _574  and  _576
REMARK  235  A    between atoms: _576  and  _577
REMARK  236  A    between atoms: _576  and  _584
REMARK  237  A    between atoms: _577  and  _578
REMARK  238  A    between atoms: _578  and  _579
REMARK  239  A    between atoms: _579  and  _580
REMARK  240  A    between atoms: _580  and  _581
REMARK  241  A    between atoms: _586  and  _588
REMARK  242  A    between atoms: _588  and  _589
REMARK  243  A    between atoms: _588  and  _591
REMARK  244  A    between atoms: _591  and  _592
REMARK  245  A    between atoms: _595  and  _597
REMARK  246  A    between atoms: _597  and  _598
REMARK  247  A    between atoms: _600  and  _602
REMARK  248  A    between atoms: _602  and  _603
REMARK  249  A    between atoms: _606  and  _608
REMARK  250  A    between atoms: _608  and  _609
REMARK  251  A    between atoms: _608  and  _611
REMARK  252  A    between atoms: _611  and  _612
REMARK  253  A    between atoms: _617  and  _618
REMARK                            x       y       z     vdW  Elec       q    Type
REMARK                         _______ _______ _______ _____ _____    ______ ____
ROOT
ATOM      1  CB  HIS A   1      37.473  18.383  20.041  0.00  0.00    +0.072 C 
ENDROOT
BRANCH   1   2
ATOM      2  CG  HIS A   1      38.160  18.571  21.357  0.00  0.00    +0.082 A 
ATOM      3  CD2 HIS A   1      38.113  17.842  22.495  0.00  0.00    +0.115 A 
ATOM      4  NE2 HIS A   1      38.928  18.464  23.409  0.00  0.00    -0.221 NA
ATOM      5  CE1 HIS A   1      39.453  19.538  22.853  0.00  0.00    +0.199 A 
ATOM      6  ND1 HIS A   1      39.005  19.628  21.615  0.00  0.00    -0.227 NA
ENDBRANCH   1   2
BRANCH   1   7
ATOM      7  CA  HIS A   1      38.430  18.248  18.852  0.00  0.00    +0.139 C 
BRANCH   7   8
ATOM      8  N   HIS A   1      37.705  17.791  17.679  0.00  0.00    -0.239 NA
ATOM      9  H   HIS A   1      36.716  17.490  17.792  0.00  0.00    +0.142 HD
ENDBRANCH   7   8
BRANCH   7  10
ATOM     10  C   HIS A   1      39.581  17.294  19.171  0.00  0.00    +0.224 C 
ATOM     11  O   HIS A   1      40.714  17.727  19.373  0.00  0.00    -0.287 OA
ENDBRANCH   7  10
ENDBRANCH   1   7
TORSDOF 4
REMARK  Name = ../refined-set-2016/3g2h/3g2h_pocket.pdb
REMARK  253 active torsions:
REMARK  status: ('A' for Active; 'I' for Inactive)
REMARK    1  A    between atoms: _1  and  _3
REMARK    2  A    between atoms: _3  and  _4
REMARK    3  A    between atoms: _3  and  _6
REMARK    4  A    between atoms: _6  and  _7
REMARK    5  A    between atoms: _12  and  _13
REMARK    6  A    between atoms: _15  and  _17
REMARK    7  A    between atoms: _17  and  _18
REMARK    8  A    between atoms: _17  and  _20
REMARK    9  A    between atoms: _20  and  _21
REMARK   10  A    between atoms: _21  and  _22
REMARK   11  A    between atoms: _25  and  _27
REMARK   12  A    between atoms: _27  and  _28
REMARK   13  A    between atoms: _27  and  _30
REMARK   14  A    between atoms: _30  and  _31
REMARK   15  A    between atoms: _36  and  _38
REMARK   16  A    between atoms: _38  and  _39
REMARK   17  A    between atoms: _41  and  _43
REMARK   18  A    between atoms: _43  and  _44
REMARK   19  A    between atoms: _46  and  _48
REMARK   20  A    between atoms: _48  and  _49
REMARK   21  A    between atoms: _48  and  _51
REMARK   22  A    between atoms: _51  and  _52
REMARK   23  A    between atoms: _55  and  _57
REMARK   24  A    between atoms: _57  and  _58
REMARK   25  A    between atoms: _60  and  _62
REMARK   26  A    between atoms: _62  and  _63
REMARK   27  A    between atoms: _62  and  _65
REMARK   28  A    between atoms: _65  and  _66
REMARK   29  A    between atoms: _66  and  _67
REMARK   30  A    between atoms: _67  and  _68
REMARK   31  A    between atoms: _77  and  _79
REMARK   32  A    between atoms: _79  and  _80
REMARK   33  A    between atoms: _79  and  _82
REMARK   34  A    between atoms: _82  and  _83
REMARK   35  A    between atoms: _86  and  _88
REMARK   36  A    between atoms: _88  and  _89
REMARK   37  A    between atoms: _92  and  _94
REMARK   38  A    between atoms: _94  and  _95
REMARK   39  A    between atoms: _94  and  _97
REMARK   40  A    between atoms: _97  and  _98
REMARK   41  A    between atoms: _104  and  _106
REMARK   42  A    between atoms: _106  and  _107
REMARK   43  A    between atoms: _106  and  _109
REMARK   44  A    between atoms: _109  and  _110
REMARK   45  A    between atoms: _115  and  _117
REMARK   46  A    between atoms: _117  and  _118
REMARK   47  A    between atoms: _117  and  _120
REMARK   48  A    between atoms: _120  and  _121
REMARK   49  A    between atoms: _124  and  _126
REMARK   50  A    between atoms: _126  and  _127
REMARK   51  A    between atoms: _126  and  _129
REMARK   52  A    between atoms: _129  and  _130
REMARK   53  A    between atoms: _135  and  _137
REMARK   54  A    between atoms: _137  and  _138
REMARK   55  A    between atoms: _137  and  _140
REMARK   56  A    between atoms: _140  and  _141
REMARK   57  A    between atoms: _147  and  _149
REMARK   58  A    between atoms: _149  and  _150
REMARK   59  A    between atoms: _149  and  _152
REMARK   60  A    between atoms: _152  and  _153
REMARK   61  A    between atoms: _159  and  _161
REMARK   62  A    between atoms: _161  and  _162
REMARK   63  A    between atoms: _161  and  _164
REMARK   64  A    between atoms: _164  and  _165
REMARK   65  A    between atoms: _165  and  _166
REMARK   66  A    between atoms: _169  and  _171
REMARK   67  A    between atoms: _171  and  _172
REMARK   68  A    between atoms: _171  and  _174
REMARK   69  A    between atoms: _174  and  _175
REMARK   70  A    between atoms: _175  and  _176
REMARK   71  A    between atoms: _176  and  _177
REMARK   72  A    between atoms: _186  and  _188
REMARK   73  A    between atoms: _188  and  _189
REMARK   74  A    between atoms: _188  and  _191
REMARK   75  A    between atoms: _191  and  _192
REMARK   76  A    between atoms: _197  and  _199
REMARK   77  A    between atoms: _199  and  _200
REMARK   78  A    between atoms: _199  and  _202
REMARK   79  A    between atoms: _202  and  _203
REMARK   80  A    between atoms: _206  and  _208
REMARK   81  A    between atoms: _208  and  _209
REMARK   82  A    between atoms: _208  and  _211
REMARK   83  A    between atoms: _211  and  _212
REMARK   84  A    between atoms: _215  and  _217
REMARK   85  A    between atoms: _217  and  _218
REMARK   86  A    between atoms: _217  and  _220
REMARK   87  A    between atoms: _220  and  _221
REMARK   88  A    between atoms: _226  and  _228
REMARK   89  A    between atoms: _228  and  _229
REMARK   90  A    between atoms: _228  and  _231
REMARK   91  A    between atoms: _231  and  _232
REMARK   92  A    between atoms: _237  and  _238
REMARK   93  A    between atoms: _240  and  _242
REMARK   94  A    between atoms: _242  and  _243
REMARK   95  A    between atoms: _242  and  _245
REMARK   96  A    between atoms: _245  and  _246
REMARK   97  A    between atoms: _249  and  _251
REMARK   98  A    between atoms: _251  and  _252
REMARK   99  A    between atoms: _251  and  _254
REMARK  100  A    between atoms: _254  and  _255
REMARK  101  A    between atoms: _260  and  _262
REMARK  102  A    between atoms: _262  and  _263
REMARK  103  A    between atoms: _262  and  _265
REMARK  104  A    between atoms: _265  and  _266
REMARK  105  A    between atoms: _271  and  _273
REMARK  106  A    between atoms: _273  and  _274
REMARK  107  A    between atoms: _273  and  _276
REMARK  108  A    between atoms: _276  and  _277
REMARK  109  A    between atoms: _280  and  _282
REMARK  110  A    between atoms: _282  and  _283
REMARK  111  A    between atoms: _282  and  _285
REMARK  112  A    between atoms: _288  and  _290
REMARK  113  A    between atoms: _290  and  _291
REMARK  114  A    between atoms: _290  and  _293
REMARK  115  A    between atoms: _293  and  _294
REMARK  116  A    between atoms: _297  and  _299
REMARK  117  A    between atoms: _299  and  _300
REMARK  118  A    between atoms: _299  and  _302
REMARK  119  A    between atoms: _302  and  _303
REMARK  120  A    between atoms: _303  and  _304
REMARK  121  A    between atoms: _307  and  _309
REMARK  122  A    between atoms: _309  and  _310
REMARK  123  A    between atoms: _313  and  _315
REMARK  124  A    between atoms: _315  and  _316
REMARK  125  A    between atoms: _315  and  _318
REMARK  126  A    between atoms: _318  and  _319
REMARK  127  A    between atoms: _322  and  _324
REMARK  128  A    between atoms: _324  and  _325
REMARK  129  A    between atoms: _324  and  _327
REMARK  130  A    between atoms: _327  and  _328
REMARK  131  A    between atoms: _328  and  _329
REMARK  132  A    between atoms: _332  and  _334
REMARK  133  A    between atoms: _334  and  _335
REMARK  134  A    between atoms: _334  and  _337
REMARK  135  A    between atoms: _337  and  _338
REMARK  136  A    between atoms: _343  and  _345
REMARK  137  A    between atoms: _345  and  _346
REMARK  138  A    between atoms: _348  and  _350
REMARK  139  A    between atoms: _350  and  _351
REMARK  140  A    between atoms: _350  and  _353
REMARK  141  A    between atoms: _356  and  _358
REMARK  142  A    between atoms: _358  and  _359
REMARK  143  A    between atoms: _362  and  _364
REMARK  144  A    between atoms: _364  and  _365
REMARK  145  A    between atoms: _364  and  _367
REMARK  146  A    between atoms: _367  and  _368
REMARK  147  A    between atoms: _373  and  _375
REMARK  148  A    between atoms: _375  and  _376
REMARK  149  A    between atoms: _375  and  _378
REMARK  150  A    between atoms: _378  and  _379
REMARK  151  A    between atoms: _379  and  _380
REMARK  152  A    between atoms: _380  and  _381
REMARK  153  A    between atoms: _381  and  _382
REMARK  154  A    between atoms: _386  and  _388
REMARK  155  A    between atoms: _388  and  _389
REMARK  156  A    between atoms: _388  and  _391
REMARK  157  A    between atoms: _391  and  _392
REMARK  158  A    between atoms: _395  and  _397
REMARK  159  A    between atoms: _397  and  _398
REMARK  160  A    between atoms: _397  and  _400
REMARK  161  A    between atoms: _400  and  _401
REMARK  162  A    between atoms: _406  and  _408
REMARK  163  A    between atoms: _408  and  _409
REMARK  164  A    between atoms: _411  and  _413
REMARK  165  A    between atoms: _413  and  _414
REMARK  166  A    between atoms: _413  and  _416
REMARK  167  A    between atoms: _416  and  _417
REMARK  168  A    between atoms: _417  and  _418
REMARK  169  A    between atoms: _418  and  _419
REMARK  170  A    between atoms: _419  and  _420
REMARK  171  A    between atoms: _424  and  _426
REMARK  172  A    between atoms: _426  and  _427
REMARK  173  A    between atoms: _426  and  _429
REMARK  174  A    between atoms: _429  and  _430
REMARK  175  A    between atoms: _430  and  _431
REMARK  176  A    between atoms: _431  and  _432
REMARK  177  A    between atoms: _441  and  _443
REMARK  178  A    between atoms: _443  and  _444
REMARK  179  A    between atoms: _443  and  _446
REMARK  180  A    between atoms: _446  and  _447
REMARK  181  A    between atoms: _452  and  _454
REMARK  182  A    between atoms: _454  and  _455
REMARK  183  A    between atoms: _454  and  _457
REMARK  184  A    between atoms: _457  and  _458
REMARK  185  A    between atoms: _463  and  _464
REMARK  186  A    between atoms: _466  and  _468
REMARK  187  A    between atoms: _468  and  _469
REMARK  188  A    between atoms: _468  and  _471
REMARK  189  A    between atoms: _471  and  _472
REMARK  190  A    between atoms: _472  and  _473
REMARK  191  A    between atoms: _473  and  _474
REMARK  192  A    between atoms: _474  and  _475
REMARK  193  A    between atoms: _479  and  _481
REMARK  194  A    between atoms: _481  and  _482
REMARK  195  A    between atoms: _481  and  _484
REMARK  196  A    between atoms: _484  and  _485
REMARK  197  A    between atoms: _487  and  _489
REMARK  198  A    between atoms: _489  and  _490
REMARK  199  A    between atoms: _489  and  _492
REMARK  200  A    between atoms: _492  and  _493
REMARK  201  A    between atoms: _496  and  _498
REMARK  202  A    between atoms: _498  and  _499
REMARK  203  A    between atoms: _498  and  _501
REMARK  204  A    between atoms: _501  and  _502
REMARK  205  A    between atoms: _502  and  _503
REMARK  206  A    between atoms: _506  and  _508
REMARK  207  A    between atoms: _508  and  _509
REMARK  208  A    between atoms: _512  and  _514
REMARK  209  A    between atoms: _514  and  _515
REMARK  210  A    between atoms: _514  and  _517
REMARK  211  A    between atoms: _517  and  _518
REMARK  212  A    between atoms: _520  and  _522
REMARK  213  A    between atoms: _522  and  _523
REMARK  214  A    between atoms: _525  and  _527
REMARK  215  A    between atoms: _527  and  _528
REMARK  216  A    between atoms: _527  and  _530
REMARK  217  A    between atoms: _530  and  _531
REMARK  218  A    between atoms: _534  and  _536
REMARK  219  A    between atoms: _536  and  _537
REMARK  220  A    between atoms: _539  and  _541
REMARK  221  A    between atoms: _541  and  _542
REMARK  222  A    between atoms: _541  and  _544
REMARK  223  A    between atoms: _544  and  _545
REMARK  224  A    between atoms: _550  and  _552
REMARK  225  A    between atoms: _552  and  _553
REMARK  226  A    between atoms: _552  and  _555
REMARK  227  A    between atoms: _555  and  _556
REMARK  228  A    between atoms: _556  and  _557
REMARK  229  A    between atoms: _564  and  _565
REMARK  230  A    between atoms: _565  and  _581
REMARK  231  A    between atoms: _566  and  _568
REMARK  232  A    between atoms: _568  and  _569
REMARK  233  A    between atoms: _569  and  _570
REMARK  234  A    between atoms: _574  and  _576
REMARK  235  A    between atoms: _576  and  _577
REMARK  236  A    between atoms: _576  and  _584
REMARK  237  A    between atoms: _577  and  _578
REMARK  238  A    between atoms: _578  and  _579
REMARK  239  A    between atoms: _579  and  _580
REMARK  240  A    between atoms: _580  and  _581
REMARK  241  A    between atoms: _586  and  _588
REMARK  242  A    between atoms: _588  and  _589
REMARK  243  A    between atoms: _588  and  _591
REMARK  244  A    between atoms: _591  and  _592
REMARK  245  A    between atoms: _595  and  _597
REMARK  246  A    between atoms: _597  and  _598
REMARK  247  A    between atoms: _600  and  _602
REMARK  248  A    between atoms: _602  and  _603
REMARK  249  A    between atoms: _606  and  _608
REMARK  250  A    between atoms: _608  and  _609
REMARK  251  A    between atoms: _608  and  _611
REMARK  252  A    between atoms: _611  and  _612
REMARK  253  A    between atoms: _617  and  _618
REMARK                            x       y       z     vdW  Elec       q    Type
REMARK                         _______ _______ _______ _____ _____    ______ ____
ROOT
ATOM      1  CA  THR A   2      32.169  12.248  21.324  0.00  0.00    +0.176 C 
ENDROOT
BRANCH   1   4
ATOM      2  C   LYS A   1      33.827  11.222  22.783  0.00  0.00    +0.238 C 
ATOM      3  O   LYS A   1      33.775  12.149  23.588  0.00  0.00    -0.274 OA
ATOM      4  N   THR A   2      33.106  11.184  21.666  0.00  0.00    -0.295 N 
ATOM      5  H   THR A   2      33.213  10.376  21.021  0.00  0.00    +0.150 HD
BRANCH   2   6
ATOM      6  CA  LYS A   1      34.771  10.061  23.010  0.00  0.00    +0.145 C 
BRANCH   6   7
ATOM      7  N   LYS A   1      36.054  10.463  22.456  0.00  0.00    -0.238 NA
ATOM      8  H   LYS A   1      36.388  11.435  22.613  0.00  0.00    +0.142 HD
ENDBRANCH   6   7
BRANCH   6   9
ATOM      9  CB  LYS A   1      34.883   9.743  24.507  0.00  0.00    +0.026 C 
BRANCH   9  10
ATOM     10  CG  LYS A   1      35.792   8.575  24.849  0.00  0.00    -0.000 C 
BRANCH  10  11
ATOM     11  CD  LYS A   1      35.174   7.237  24.452  0.00  0.00    -0.024 C 
BRANCH  11  12
ATOM     12  CE  LYS A   1      36.220   6.130  24.502  0.00  0.00    -0.086 C 
BRANCH  12  13
ATOM     13  NZ  LYS A   1      37.172   6.199  23.358  0.00  0.00    +0.380 N 
ATOM     14  HZ1 LYS A   1      37.863   5.426  23.437  0.00  0.00    -0.089 HD
ATOM     15  HZ2 LYS A   1      37.668   7.113  23.376  0.00  0.00    -0.089 HD
ATOM     16  HZ3 LYS A   1      36.647   6.106  22.465  0.00  0.00    -0.089 HD
ENDBRANCH  12  13
ENDBRANCH  11  12
ENDBRANCH  10  11
ENDBRANCH   9  10
ENDBRANCH   6   9
ENDBRANCH   2   6
ENDBRANCH   1   4
BRANCH   1  17
ATOM     17  C   THR A   2      31.112  12.353  22.406  0.00  0.00    +0.243 C 
ATOM     18  N   ASN A   3      30.895  13.579  22.865  0.00  0.00    -0.297 N 
ATOM     19  H   ASN A   3      31.439  14.366  22.458  0.00  0.00    +0.150 HD
ATOM     20  O   THR A   2      30.518  11.347  22.811  0.00  0.00    -0.273 OA
BRANCH  18  21
ATOM     21  CA  ASN A   3      29.932  13.869  23.910  0.00  0.00    +0.158 C 
BRANCH  21  22
ATOM     22  C   ASN A   3      28.523  13.393  23.570  0.00  0.00    +0.241 C 
ATOM     23  N   GLY A   4      27.683  13.367  24.587  0.00  0.00    -0.296 N 
ATOM     24  H   GLY A   4      28.032  13.607  25.537  0.00  0.00    +0.150 HD
ATOM     25  O   ASN A   3      28.215  13.042  22.430  0.00  0.00    -0.273 OA
BRANCH  23  26
ATOM     26  CA  GLY A   4      26.291  13.015  24.419  0.00  0.00    +0.163 C 
BRANCH  26  27
ATOM     27  C   GLY A   4      25.495  13.679  25.513  0.00  0.00    +0.229 C 
ATOM     28  O   GLY A   4      26.061  14.303  26.414  0.00  0.00    -0.286 OA
ENDBRANCH  26  27
ENDBRANCH  23  26
ENDBRANCH  21  22
BRANCH  21  29
ATOM     29  CB  ASN A   3      29.925  15.371  24.218  0.00  0.00    +0.114 C 
BRANCH  29  30
ATOM     30  CG  ASN A   3      31.041  15.779  25.170  0.00  0.00    +0.222 C 
ATOM     31  ND2 ASN A   3      31.704  14.796  25.767  0.00  0.00    -0.329 N 
ATOM     32 HD21 ASN A   3      32.467  15.016  26.438  0.00  0.00    +0.145 HD
ATOM     33 HD22 ASN A   3      31.460  13.806  25.564  0.00  0.00    +0.145 HD
ATOM     34  OD1 ASN A   3      31.292  16.972  25.377  0.00  0.00    -0.275 OA
ENDBRANCH  29  30
ENDBRANCH  21  29
ENDBRANCH  18  21
ENDBRANCH   1  17
BRANCH   1  35
ATOM     35  CB  THR A   2      31.491  12.018  19.953  0.00  0.00    +0.137 C 
ATOM     36  CG2 THR A   2      30.526  13.162  19.613  0.00  0.00    +0.034 C 
BRANCH  35  37
ATOM     37  OG1 THR A   2      32.496  11.955  18.939  0.00  0.00    -0.382 OA
ATOM     38  HG1 THR A   2      32.067  11.808  18.059  0.00  0.00    +0.210 HD
ENDBRANCH  35  37
ENDBRANCH   1  35
TORSDOF 17
REMARK  Name = ../refined-set-2016/3g2h/3g2h_pocket.pdb
REMARK  253 active torsions:
REMARK  status: ('A' for Active; 'I' for Inactive)
REMARK    1  A    between atoms: _1  and  _3
REMARK    2  A    between atoms: _3  and  _4
REMARK    3  A    between atoms: _3  and  _6
REMARK    4  A    between atoms: _6  and  _7
REMARK    5  A    between atoms: _12  and  _13
REMARK    6  A    between atoms: _15  and  _17
REMARK    7  A    between atoms: _17  and  _18
REMARK    8  A    between atoms: _17  and  _20
REMARK    9  A    between atoms: _20  and  _21
REMARK   10  A    between atoms: _21  and  _22
REMARK   11  A    between atoms: _25  and  _27
REMARK   12  A    between atoms: _27  and  _28
REMARK   13  A    between atoms: _27  and  _30
REMARK   14  A    between atoms: _30  and  _31
REMARK   15  A    between atoms: _36  and  _38
REMARK   16  A    between atoms: _38  and  _39
REMARK   17  A    between atoms: _41  and  _43
REMARK   18  A    between atoms: _43  and  _44
REMARK   19  A    between atoms: _46  and  _48
REMARK   20  A    between atoms: _48  and  _49
REMARK   21  A    between atoms: _48  and  _51
REMARK   22  A    between atoms: _51  and  _52
REMARK   23  A    between atoms: _55  and  _57
REMARK   24  A    between atoms: _57  and  _58
REMARK   25  A    between atoms: _60  and  _62
REMARK   26  A    between atoms: _62  and  _63
REMARK   27  A    between atoms: _62  and  _65
REMARK   28  A    between atoms: _65  and  _66
REMARK   29  A    between atoms: _66  and  _67
REMARK   30  A    between atoms: _67  and  _68
REMARK   31  A    between atoms: _77  and  _79
REMARK   32  A    between atoms: _79  and  _80
REMARK   33  A    between atoms: _79  and  _82
REMARK   34  A    between atoms: _82  and  _83
REMARK   35  A    between atoms: _86  and  _88
REMARK   36  A    between atoms: _88  and  _89
REMARK   37  A    between atoms: _92  and  _94
REMARK   38  A    between atoms: _94  and  _95
REMARK   39  A    between atoms: _94  and  _97
REMARK   40  A    between atoms: _97  and  _98
REMARK   41  A    between atoms: _104  and  _106
REMARK   42  A    between atoms: _106  and  _107
REMARK   43  A    between atoms: _106  and  _109
REMARK   44  A    between atoms: _109  and  _110
REMARK   45  A    between atoms: _115  and  _117
REMARK   46  A    between atoms: _117  and  _118
REMARK   47  A    between atoms: _117  and  _120
REMARK   48  A    between atoms: _120  and  _121
REMARK   49  A    between atoms: _124  and  _126
REMARK   50  A    between atoms: _126  and  _127
REMARK   51  A    between atoms: _126  and  _129
REMARK   52  A    between atoms: _129  and  _130
REMARK   53  A    between atoms: _135  and  _137
REMARK   54  A    between atoms: _137  and  _138
REMARK   55  A    between atoms: _137  and  _140
REMARK   56  A    between atoms: _140  and  _141
REMARK   57  A    between atoms: _147  and  _149
REMARK   58  A    between atoms: _149  and  _150
REMARK   59  A    between atoms: _149  and  _152
REMARK   60  A    between atoms: _152  and  _153
REMARK   61  A    between atoms: _159  and  _161
REMARK   62  A    between atoms: _161  and  _162
REMARK   63  A    between atoms: _161  and  _164
REMARK   64  A    between atoms: _164  and  _165
REMARK   65  A    between atoms: _165  and  _166
REMARK   66  A    between atoms: _169  and  _171
REMARK   67  A    between atoms: _171  and  _172
REMARK   68  A    between atoms: _171  and  _174
REMARK   69  A    between atoms: _174  and  _175
REMARK   70  A    between atoms: _175  and  _176
REMARK   71  A    between atoms: _176  and  _177
REMARK   72  A    between atoms: _186  and  _188
REMARK   73  A    between atoms: _188  and  _189
REMARK   74  A    between atoms: _188  and  _191
REMARK   75  A    between atoms: _191  and  _192
REMARK   76  A    between atoms: _197  and  _199
REMARK   77  A    between atoms: _199  and  _200
REMARK   78  A    between atoms: _199  and  _202
REMARK   79  A    between atoms: _202  and  _203
REMARK   80  A    between atoms: _206  and  _208
REMARK   81  A    between atoms: _208  and  _209
REMARK   82  A    between atoms: _208  and  _211
REMARK   83  A    between atoms: _211  and  _212
REMARK   84  A    between atoms: _215  and  _217
REMARK   85  A    between atoms: _217  and  _218
REMARK   86  A    between atoms: _217  and  _220
REMARK   87  A    between atoms: _220  and  _221
REMARK   88  A    between atoms: _226  and  _228
REMARK   89  A    between atoms: _228  and  _229
REMARK   90  A    between atoms: _228  and  _231
REMARK   91  A    between atoms: _231  and  _232
REMARK   92  A    between atoms: _237  and  _238
REMARK   93  A    between atoms: _240  and  _242
REMARK   94  A    between atoms: _242  and  _243
REMARK   95  A    between atoms: _242  and  _245
REMARK   96  A    between atoms: _245  and  _246
REMARK   97  A    between atoms: _249  and  _251
REMARK   98  A    between atoms: _251  and  _252
REMARK   99  A    between atoms: _251  and  _254
REMARK  100  A    between atoms: _254  and  _255
REMARK  101  A    between atoms: _260  and  _262
REMARK  102  A    between atoms: _262  and  _263
REMARK  103  A    between atoms: _262  and  _265
REMARK  104  A    between atoms: _265  and  _266
REMARK  105  A    between atoms: _271  and  _273
REMARK  106  A    between atoms: _273  and  _274
REMARK  107  A    between atoms: _273  and  _276
REMARK  108  A    between atoms: _276  and  _277
REMARK  109  A    between atoms: _280  and  _282
REMARK  110  A    between atoms: _282  and  _283
REMARK  111  A    between atoms: _282  and  _285
REMARK  112  A    between atoms: _288  and  _290
REMARK  113  A    between atoms: _290  and  _291
REMARK  114  A    between atoms: _290  and  _293
REMARK  115  A    between atoms: _293  and  _294
REMARK  116  A    between atoms: _297  and  _299
REMARK  117  A    between atoms: _299  and  _300
REMARK  118  A    between atoms: _299  and  _302
REMARK  119  A    between atoms: _302  and  _303
REMARK  120  A    between atoms: _303  and  _304
REMARK  121  A    between atoms: _307  and  _309
REMARK  122  A    between atoms: _309  and  _310
REMARK  123  A    between atoms: _313  and  _315
REMARK  124  A    between atoms: _315  and  _316
REMARK  125  A    between atoms: _315  and  _318
REMARK  126  A    between atoms: _318  and  _319
REMARK  127  A    between atoms: _322  and  _324
REMARK  128  A    between atoms: _324  and  _325
REMARK  129  A    between atoms: _324  and  _327
REMARK  130  A    between atoms: _327  and  _328
REMARK  131  A    between atoms: _328  and  _329
REMARK  132  A    between atoms: _332  and  _334
REMARK  133  A    between atoms: _334  and  _335
REMARK  134  A    between atoms: _334  and  _337
REMARK  135  A    between atoms: _337  and  _338
REMARK  136  A    between atoms: _343  and  _345
REMARK  137  A    between atoms: _345  and  _346
REMARK  138  A    between atoms: _348  and  _350
REMARK  139  A    between atoms: _350  and  _351
REMARK  140  A    between atoms: _350  and  _353
REMARK  141  A    between atoms: _356  and  _358
REMARK  142  A    between atoms: _358  and  _359
REMARK  143  A    between atoms: _362  and  _364
REMARK  144  A    between atoms: _364  and  _365
REMARK  145  A    between atoms: _364  and  _367
REMARK  146  A    between atoms: _367  and  _368
REMARK  147  A    between atoms: _373  and  _375
REMARK  148  A    between atoms: _375  and  _376
REMARK  149  A    between atoms: _375  and  _378
REMARK  150  A    between atoms: _378  and  _379
REMARK  151  A    between atoms: _379  and  _380
REMARK  152  A    between atoms: _380  and  _381
REMARK  153  A    between atoms: _381  and  _382
REMARK  154  A    between atoms: _386  and  _388
REMARK  155  A    between atoms: _388  and  _389
REMARK  156  A    between atoms: _388  and  _391
REMARK  157  A    between atoms: _391  and  _392
REMARK  158  A    between atoms: _395  and  _397
REMARK  159  A    between atoms: _397  and  _398
REMARK  160  A    between atoms: _397  and  _400
REMARK  161  A    between atoms: _400  and  _401
REMARK  162  A    between atoms: _406  and  _408
REMARK  163  A    between atoms: _408  and  _409
REMARK  164  A    between atoms: _411  and  _413
REMARK  165  A    between atoms: _413  and  _414
REMARK  166  A    between atoms: _413  and  _416
REMARK  167  A    between atoms: _416  and  _417
REMARK  168  A    between atoms: _417  and  _418
REMARK  169  A    between atoms: _418  and  _419
REMARK  170  A    between atoms: _419  and  _420
REMARK  171  A    between atoms: _424  and  _426
REMARK  172  A    between atoms: _426  and  _427
REMARK  173  A    between atoms: _426  and  _429
REMARK  174  A    between atoms: _429  and  _430
REMARK  175  A    between atoms: _430  and  _431
REMARK  176  A    between atoms: _431  and  _432
REMARK  177  A    between atoms: _441  and  _443
REMARK  178  A    between atoms: _443  and  _444
REMARK  179  A    between atoms: _443  and  _446
REMARK  180  A    between atoms: _446  and  _447
REMARK  181  A    between atoms: _452  and  _454
REMARK  182  A    between atoms: _454  and  _455
REMARK  183  A    between atoms: _454  and  _457
REMARK  184  A    between atoms: _457  and  _458
REMARK  185  A    between atoms: _463  and  _464
REMARK  186  A    between atoms: _466  and  _468
REMARK  187  A    between atoms: _468  and  _469
REMARK  188  A    between atoms: _468  and  _471
REMARK  189  A    between atoms: _471  and  _472
REMARK  190  A    between atoms: _472  and  _473
REMARK  191  A    between atoms: _473  and  _474
REMARK  192  A    between atoms: _474  and  _475
REMARK  193  A    between atoms: _479  and  _481
REMARK  194  A    between atoms: _481  and  _482
REMARK  195  A    between atoms: _481  and  _484
REMARK  196  A    between atoms: _484  and  _485
REMARK  197  A    between atoms: _487  and  _489
REMARK  198  A    between atoms: _489  and  _490
REMARK  199  A    between atoms: _489  and  _492
REMARK  200  A    between atoms: _492  and  _493
REMARK  201  A    between atoms: _496  and  _498
REMARK  202  A    between atoms: _498  and  _499
REMARK  203  A    between atoms: _498  and  _501
REMARK  204  A    between atoms: _501  and  _502
REMARK  205  A    between atoms: _502  and  _503
REMARK  206  A    between atoms: _506  and  _508
REMARK  207  A    between atoms: _508  and  _509
REMARK  208  A    between atoms: _512  and  _514
REMARK  209  A    between atoms: _514  and  _515
REMARK  210  A    between atoms: _514  and  _517
REMARK  211  A    between atoms: _517  and  _518
REMARK  212  A    between atoms: _520  and  _522
REMARK  213  A    between atoms: _522  and  _523
REMARK  214  A    between atoms: _525  and  _527
REMARK  215  A    between atoms: _527  and  _528
REMARK  216  A    between atoms: _527  and  _530
REMARK  217  A    between atoms: _530  and  _531
REMARK  218  A    between atoms: _534  and  _536
REMARK  219  A    between atoms: _536  and  _537
REMARK  220  A    between atoms: _539  and  _541
REMARK  221  A    between atoms: _541  and  _542
REMARK  222  A    between atoms: _541  and  _544
REMARK  223  A    between atoms: _544  and  _545
REMARK  224  A    between atoms: _550  and  _552
REMARK  225  A    between atoms: _552  and  _553
REMARK  226  A    between atoms: _552  and  _555
REMARK  227  A    between atoms: _555  and  _556
REMARK  228  A    between atoms: _556  and  _557
REMARK  229  A    between atoms: _564  and  _565
REMARK  230  A    between atoms: _565  and  _581
REMARK  231  A    between atoms: _566  and  _568
REMARK  232  A    between atoms: _568  and  _569
REMARK  233  A    between atoms: _569  and  _570
REMARK  234  A    between atoms: _574  and  _576
REMARK  235  A    between atoms: _576  and  _577
REMARK  236  A    between atoms: _576  and  _584
REMARK  237  A    between atoms: _577  and  _578
REMARK  238  A    between atoms: _578  and  _579
REMARK  239  A    between atoms: _579  and  _580
REMARK  240  A    between atoms: _580  and  _581
REMARK  241  A    between atoms: _586  and  _588
REMARK  242  A    between atoms: _588  and  _589
REMARK  243  A    between atoms: _588  and  _591
REMARK  244  A    between atoms: _591  and  _592
REMARK  245  A    between atoms: _595  and  _597
REMARK  246  A    between atoms: _597  and  _598
REMARK  247  A    between atoms: _600  and  _602
REMARK  248  A    between atoms: _602  and  _603
REMARK  249  A    between atoms: _606  and  _608
REMARK  250  A    between atoms: _608  and  _609
REMARK  251  A    between atoms: _608  and  _611
REMARK  252  A    between atoms: _611  and  _612
REMARK  253  A    between atoms: _617  and  _618
REMARK                            x       y       z     vdW  Elec       q    Type
REMARK                         _______ _______ _______ _____ _____    ______ ____
ROOT
ATOM      1  C   LYS A   1      25.624  30.083  27.014  0.00  0.00    +0.238 C 
ATOM      2  N   ARG A   2      26.698  29.752  27.723  0.00  0.00    -0.298 N 
ATOM      3  H   ARG A   2      26.980  28.754  27.795  0.00  0.00    +0.150 HD
ATOM      4  O   LYS A   1      25.206  31.240  26.929  0.00  0.00    -0.274 OA
ENDROOT
BRANCH   1   5
ATOM      5  CA  LYS A   1      24.900  28.962  26.289  0.00  0.00    +0.145 C 
BRANCH   5   6
ATOM      6  N   LYS A   1      23.613  29.523  25.891  0.00  0.00    -0.238 NA
ATOM      7  H   LYS A   1      23.365  30.474  26.232  0.00  0.00    +0.142 HD
ENDBRANCH   5   6
BRANCH   5   8
ATOM      8  CB  LYS A   1      25.709  28.514  25.066  0.00  0.00    +0.026 C 
BRANCH   8   9
ATOM      9  CG  LYS A   1      25.980  29.611  24.025  0.00  0.00    -0.000 C 
BRANCH   9  10
ATOM     10  CD  LYS A   1      25.925  29.069  22.603  0.00  0.00    -0.024 C 
BRANCH  10  11
ATOM     11  CE  LYS A   1      26.757  27.822  22.454  0.00  0.00    -0.086 C 
BRANCH  11  12
ATOM     12  NZ  LYS A   1      26.030  26.733  21.754  0.00  0.00    +0.380 N 
ATOM     13  HZ1 LYS A   1      25.176  26.486  22.293  0.00  0.00    -0.089 HD
ATOM     14  HZ2 LYS A   1      26.647  25.899  21.678  0.00  0.00    -0.089 HD
ATOM     15  HZ3 LYS A   1      25.760  27.054  20.802  0.00  0.00    -0.089 HD
ENDBRANCH  11  12
ENDBRANCH  10  11
ENDBRANCH   9  10
ENDBRANCH   8   9
ENDBRANCH   5   8
ENDBRANCH   1   5
BRANCH   2  16
ATOM     16  CA  ARG A   2      27.486  30.779  28.402  0.00  0.00    +0.137 C 
BRANCH  16  17
ATOM     17  C   ARG A   2      27.966  31.843  27.426  0.00  0.00    +0.227 C 
ATOM     18  O   ARG A   2      28.237  31.553  26.262  0.00  0.00    -0.286 OA
ENDBRANCH  16  17
BRANCH  16  19
ATOM     19  CB  ARG A   2      28.665  30.154  29.146  0.00  0.00    +0.031 C 
BRANCH  19  20
ATOM     20  CG  ARG A   2      28.247  29.372  30.376  0.00  0.00    +0.045 C 
BRANCH  20  21
ATOM     21  CD  ARG A   2      27.667  30.290  31.441  0.00  0.00    +0.174 C 
BRANCH  21  22
ATOM     22  NE  ARG A   2      28.677  31.203  31.982  0.00  0.00    -0.265 N 
ATOM     23  CZ  ARG A   2      29.301  31.028  33.144  0.00  0.00    +0.342 C 
ATOM     24  NH2 ARG A   2      29.019  29.978  33.906  0.00  0.00    -0.292 N 
ATOM     25 HH21 ARG A   2      29.510  29.847  34.813  0.00  0.00    +0.255 HD
ATOM     26 HH22 ARG A   2      28.307  29.287  33.596  0.00  0.00    +0.255 HD
ATOM     27  NH1 ARG A   2      30.206  31.913  33.553  0.00  0.00    -0.292 N 
ATOM     28 HH11 ARG A   2      30.694  31.776  34.461  0.00  0.00    +0.255 HD
ATOM     29 HH12 ARG A   2      30.426  32.742  32.964  0.00  0.00    +0.255 HD
ATOM     30  HE  ARG A   2      28.922  32.043  31.421  0.00  0.00    +0.259 HD
ENDBRANCH  21  22
ENDBRANCH  20  21
ENDBRANCH  19  20
ENDBRANCH  16  19
ENDBRANCH   2  16
TORSDOF 13
REMARK  Name = ../refined-set-2016/3g2h/3g2h_pocket.pdb
REMARK  253 active torsions:
REMARK  status: ('A' for Active; 'I' for Inactive)
REMARK    1  A    between atoms: _1  and  _3
REMARK    2  A    between atoms: _3  and  _4
REMARK    3  A    between atoms: _3  and  _6
REMARK    4  A    between atoms: _6  and  _7
REMARK    5  A    between atoms: _12  and  _13
REMARK    6  A    between atoms: _15  and  _17
REMARK    7  A    between atoms: _17  and  _18
REMARK    8  A    between atoms: _17  and  _20
REMARK    9  A    between atoms: _20  and  _21
REMARK   10  A    between atoms: _21  and  _22
REMARK   11  A    between atoms: _25  and  _27
REMARK   12  A    between atoms: _27  and  _28
REMARK   13  A    between atoms: _27  and  _30
REMARK   14  A    between atoms: _30  and  _31
REMARK   15  A    between atoms: _36  and  _38
REMARK   16  A    between atoms: _38  and  _39
REMARK   17  A    between atoms: _41  and  _43
REMARK   18  A    between atoms: _43  and  _44
REMARK   19  A    between atoms: _46  and  _48
REMARK   20  A    between atoms: _48  and  _49
REMARK   21  A    between atoms: _48  and  _51
REMARK   22  A    between atoms: _51  and  _52
REMARK   23  A    between atoms: _55  and  _57
REMARK   24  A    between atoms: _57  and  _58
REMARK   25  A    between atoms: _60  and  _62
REMARK   26  A    between atoms: _62  and  _63
REMARK   27  A    between atoms: _62  and  _65
REMARK   28  A    between atoms: _65  and  _66
REMARK   29  A    between atoms: _66  and  _67
REMARK   30  A    between atoms: _67  and  _68
REMARK   31  A    between atoms: _77  and  _79
REMARK   32  A    between atoms: _79  and  _80
REMARK   33  A    between atoms: _79  and  _82
REMARK   34  A    between atoms: _82  and  _83
REMARK   35  A    between atoms: _86  and  _88
REMARK   36  A    between atoms: _88  and  _89
REMARK   37  A    between atoms: _92  and  _94
REMARK   38  A    between atoms: _94  and  _95
REMARK   39  A    between atoms: _94  and  _97
REMARK   40  A    between atoms: _97  and  _98
REMARK   41  A    between atoms: _104  and  _106
REMARK   42  A    between atoms: _106  and  _107
REMARK   43  A    between atoms: _106  and  _109
REMARK   44  A    between atoms: _109  and  _110
REMARK   45  A    between atoms: _115  and  _117
REMARK   46  A    between atoms: _117  and  _118
REMARK   47  A    between atoms: _117  and  _120
REMARK   48  A    between atoms: _120  and  _121
REMARK   49  A    between atoms: _124  and  _126
REMARK   50  A    between atoms: _126  and  _127
REMARK   51  A    between atoms: _126  and  _129
REMARK   52  A    between atoms: _129  and  _130
REMARK   53  A    between atoms: _135  and  _137
REMARK   54  A    between atoms: _137  and  _138
REMARK   55  A    between atoms: _137  and  _140
REMARK   56  A    between atoms: _140  and  _141
REMARK   57  A    between atoms: _147  and  _149
REMARK   58  A    between atoms: _149  and  _150
REMARK   59  A    between atoms: _149  and  _152
REMARK   60  A    between atoms: _152  and  _153
REMARK   61  A    between atoms: _159  and  _161
REMARK   62  A    between atoms: _161  and  _162
REMARK   63  A    between atoms: _161  and  _164
REMARK   64  A    between atoms: _164  and  _165
REMARK   65  A    between atoms: _165  and  _166
REMARK   66  A    between atoms: _169  and  _171
REMARK   67  A    between atoms: _171  and  _172
REMARK   68  A    between atoms: _171  and  _174
REMARK   69  A    between atoms: _174  and  _175
REMARK   70  A    between atoms: _175  and  _176
REMARK   71  A    between atoms: _176  and  _177
REMARK   72  A    between atoms: _186  and  _188
REMARK   73  A    between atoms: _188  and  _189
REMARK   74  A    between atoms: _188  and  _191
REMARK   75  A    between atoms: _191  and  _192
REMARK   76  A    between atoms: _197  and  _199
REMARK   77  A    between atoms: _199  and  _200
REMARK   78  A    between atoms: _199  and  _202
REMARK   79  A    between atoms: _202  and  _203
REMARK   80  A    between atoms: _206  and  _208
REMARK   81  A    between atoms: _208  and  _209
REMARK   82  A    between atoms: _208  and  _211
REMARK   83  A    between atoms: _211  and  _212
REMARK   84  A    between atoms: _215  and  _217
REMARK   85  A    between atoms: _217  and  _218
REMARK   86  A    between atoms: _217  and  _220
REMARK   87  A    between atoms: _220  and  _221
REMARK   88  A    between atoms: _226  and  _228
REMARK   89  A    between atoms: _228  and  _229
REMARK   90  A    between atoms: _228  and  _231
REMARK   91  A    between atoms: _231  and  _232
REMARK   92  A    between atoms: _237  and  _238
REMARK   93  A    between atoms: _240  and  _242
REMARK   94  A    between atoms: _242  and  _243
REMARK   95  A    between atoms: _242  and  _245
REMARK   96  A    between atoms: _245  and  _246
REMARK   97  A    between atoms: _249  and  _251
REMARK   98  A    between atoms: _251  and  _252
REMARK   99  A    between atoms: _251  and  _254
REMARK  100  A    between atoms: _254  and  _255
REMARK  101  A    between atoms: _260  and  _262
REMARK  102  A    between atoms: _262  and  _263
REMARK  103  A    between atoms: _262  and  _265
REMARK  104  A    between atoms: _265  and  _266
REMARK  105  A    between atoms: _271  and  _273
REMARK  106  A    between atoms: _273  and  _274
REMARK  107  A    between atoms: _273  and  _276
REMARK  108  A    between atoms: _276  and  _277
REMARK  109  A    between atoms: _280  and  _282
REMARK  110  A    between atoms: _282  and  _283
REMARK  111  A    between atoms: _282  and  _285
REMARK  112  A    between atoms: _288  and  _290
REMARK  113  A    between atoms: _290  and  _291
REMARK  114  A    between atoms: _290  and  _293
REMARK  115  A    between atoms: _293  and  _294
REMARK  116  A    between atoms: _297  and  _299
REMARK  117  A    between atoms: _299  and  _300
REMARK  118  A    between atoms: _299  and  _302
REMARK  119  A    between atoms: _302  and  _303
REMARK  120  A    between atoms: _303  and  _304
REMARK  121  A    between atoms: _307  and  _309
REMARK  122  A    between atoms: _309  and  _310
REMARK  123  A    between atoms: _313  and  _315
REMARK  124  A    between atoms: _315  and  _316
REMARK  125  A    between atoms: _315  and  _318
REMARK  126  A    between atoms: _318  and  _319
REMARK  127  A    between atoms: _322  and  _324
REMARK  128  A    between atoms: _324  and  _325
REMARK  129  A    between atoms: _324  and  _327
REMARK  130  A    between atoms: _327  and  _328
REMARK  131  A    between atoms: _328  and  _329
REMARK  132  A    between atoms: _332  and  _334
REMARK  133  A    between atoms: _334  and  _335
REMARK  134  A    between atoms: _334  and  _337
REMARK  135  A    between atoms: _337  and  _338
REMARK  136  A    between atoms: _343  and  _345
REMARK  137  A    between atoms: _345  and  _346
REMARK  138  A    between atoms: _348  and  _350
REMARK  139  A    between atoms: _350  and  _351
REMARK  140  A    between atoms: _350  and  _353
REMARK  141  A    between atoms: _356  and  _358
REMARK  142  A    between atoms: _358  and  _359
REMARK  143  A    between atoms: _362  and  _364
REMARK  144  A    between atoms: _364  and  _365
REMARK  145  A    between atoms: _364  and  _367
REMARK  146  A    between atoms: _367  and  _368
REMARK  147  A    between atoms: _373  and  _375
REMARK  148  A    between atoms: _375  and  _376
REMARK  149  A    between atoms: _375  and  _378
REMARK  150  A    between atoms: _378  and  _379
REMARK  151  A    between atoms: _379  and  _380
REMARK  152  A    between atoms: _380  and  _381
REMARK  153  A    between atoms: _381  and  _382
REMARK  154  A    between atoms: _386  and  _388
REMARK  155  A    between atoms: _388  and  _389
REMARK  156  A    between atoms: _388  and  _391
REMARK  157  A    between atoms: _391  and  _392
REMARK  158  A    between atoms: _395  and  _397
REMARK  159  A    between atoms: _397  and  _398
REMARK  160  A    between atoms: _397  and  _400
REMARK  161  A    between atoms: _400  and  _401
REMARK  162  A    between atoms: _406  and  _408
REMARK  163  A    between atoms: _408  and  _409
REMARK  164  A    between atoms: _411  and  _413
REMARK  165  A    between atoms: _413  and  _414
REMARK  166  A    between atoms: _413  and  _416
REMARK  167  A    between atoms: _416  and  _417
REMARK  168  A    between atoms: _417  and  _418
REMARK  169  A    between atoms: _418  and  _419
REMARK  170  A    between atoms: _419  and  _420
REMARK  171  A    between atoms: _424  and  _426
REMARK  172  A    between atoms: _426  and  _427
REMARK  173  A    between atoms: _426  and  _429
REMARK  174  A    between atoms: _429  and  _430
REMARK  175  A    between atoms: _430  and  _431
REMARK  176  A    between atoms: _431  and  _432
REMARK  177  A    between atoms: _441  and  _443
REMARK  178  A    between atoms: _443  and  _444
REMARK  179  A    between atoms: _443  and  _446
REMARK  180  A    between atoms: _446  and  _447
REMARK  181  A    between atoms: _452  and  _454
REMARK  182  A    between atoms: _454  and  _455
REMARK  183  A    between atoms: _454  and  _457
REMARK  184  A    between atoms: _457  and  _458
REMARK  185  A    between atoms: _463  and  _464
REMARK  186  A    between atoms: _466  and  _468
REMARK  187  A    between atoms: _468  and  _469
REMARK  188  A    between atoms: _468  and  _471
REMARK  189  A    between atoms: _471  and  _472
REMARK  190  A    between atoms: _472  and  _473
REMARK  191  A    between atoms: _473  and  _474
REMARK  192  A    between atoms: _474  and  _475
REMARK  193  A    between atoms: _479  and  _481
REMARK  194  A    between atoms: _481  and  _482
REMARK  195  A    between atoms: _481  and  _484
REMARK  196  A    between atoms: _484  and  _485
REMARK  197  A    between atoms: _487  and  _489
REMARK  198  A    between atoms: _489  and  _490
REMARK  199  A    between atoms: _489  and  _492
REMARK  200  A    between atoms: _492  and  _493
REMARK  201  A    between atoms: _496  and  _498
REMARK  202  A    between atoms: _498  and  _499
REMARK  203  A    between atoms: _498  and  _501
REMARK  204  A    between atoms: _501  and  _502
REMARK  205  A    between atoms: _502  and  _503
REMARK  206  A    between atoms: _506  and  _508
REMARK  207  A    between atoms: _508  and  _509
REMARK  208  A    between atoms: _512  and  _514
REMARK  209  A    between atoms: _514  and  _515
REMARK  210  A    between atoms: _514  and  _517
REMARK  211  A    between atoms: _517  and  _518
REMARK  212  A    between atoms: _520  and  _522
REMARK  213  A    between atoms: _522  and  _523
REMARK  214  A    between atoms: _525  and  _527
REMARK  215  A    between atoms: _527  and  _528
REMARK  216  A    between atoms: _527  and  _530
REMARK  217  A    between atoms: _530  and  _531
REMARK  218  A    between atoms: _534  and  _536
REMARK  219  A    between atoms: _536  and  _537
REMARK  220  A    between atoms: _539  and  _541
REMARK  221  A    between atoms: _541  and  _542
REMARK  222  A    between atoms: _541  and  _544
REMARK  223  A    between atoms: _544  and  _545
REMARK  224  A    between atoms: _550  and  _552
REMARK  225  A    between atoms: _552  and  _553
REMARK  226  A    between atoms: _552  and  _555
REMARK  227  A    between atoms: _555  and  _556
REMARK  228  A    between atoms: _556  and  _557
REMARK  229  A    between atoms: _564  and  _565
REMARK  230  A    between atoms: _565  and  _581
REMARK  231  A    between atoms: _566  and  _568
REMARK  232  A    between atoms: _568  and  _569
REMARK  233  A    between atoms: _569  and  _570
REMARK  234  A    between atoms: _574  and  _576
REMARK  235  A    between atoms: _576  and  _577
REMARK  236  A    between atoms: _576  and  _584
REMARK  237  A    between atoms: _577  and  _578
REMARK  238  A    between atoms: _578  and  _579
REMARK  239  A    between atoms: _579  and  _580
REMARK  240  A    between atoms: _580  and  _581
REMARK  241  A    between atoms: _586  and  _588
REMARK  242  A    between atoms: _588  and  _589
REMARK  243  A    between atoms: _588  and  _591
REMARK  244  A    between atoms: _591  and  _592
REMARK  245  A    between atoms: _595  and  _597
REMARK  246  A    between atoms: _597  and  _598
REMARK  247  A    between atoms: _600  and  _602
REMARK  248  A    between atoms: _602  and  _603
REMARK  249  A    between atoms: _606  and  _608
REMARK  250  A    between atoms: _608  and  _609
REMARK  251  A    between atoms: _608  and  _611
REMARK  252  A    between atoms: _611  and  _612
REMARK  253  A    between atoms: _617  and  _618
REMARK                            x       y       z     vdW  Elec       q    Type
REMARK                         _______ _______ _______ _____ _____    ______ ____
ROOT
ATOM      1  CB  HIS A   1      32.453  32.389  25.318  0.00  0.00    +0.072 C 
ENDROOT
BRANCH   1   2
ATOM      2  CG  HIS A   1      32.663  31.769  26.659  0.00  0.00    +0.082 A 
ATOM      3  CD2 HIS A   1      33.716  31.817  27.509  0.00  0.00    +0.115 A 
ATOM      4  NE2 HIS A   1      33.378  31.068  28.611  0.00  0.00    -0.221 NA
ATOM      5  CE1 HIS A   1      32.164  30.573  28.440  0.00  0.00    +0.199 A 
ATOM      6  ND1 HIS A   1      31.711  30.979  27.267  0.00  0.00    -0.227 NA
ENDBRANCH   1   2
BRANCH   1   7
ATOM      7  CA  HIS A   1      31.920  33.824  25.371  0.00  0.00    +0.139 C 
BRANCH   7   8
ATOM      8  N   HIS A   1      30.498  33.853  25.702  0.00  0.00    -0.239 NA
ATOM      9  H   HIS A   1      29.812  33.664  24.943  0.00  0.00    +0.142 HD
ENDBRANCH   7   8
BRANCH   7  10
ATOM     10  C   HIS A   1      32.118  34.430  24.006  0.00  0.00    +0.224 C 
ATOM     11  O   HIS A   1      31.256  34.307  23.134  0.00  0.00    -0.287 OA
ENDBRANCH   7  10
ENDBRANCH   1   7
TORSDOF 4
REMARK  Name = ../refined-set-2016/3g2h/3g2h_pocket.pdb
REMARK  253 active torsions:
REMARK  status: ('A' for Active; 'I' for Inactive)
REMARK    1  A    between atoms: _1  and  _3
REMARK    2  A    between atoms: _3  and  _4
REMARK    3  A    between atoms: _3  and  _6
REMARK    4  A    between atoms: _6  and  _7
REMARK    5  A    between atoms: _12  and  _13
REMARK    6  A    between atoms: _15  and  _17
REMARK    7  A    between atoms: _17  and  _18
REMARK    8  A    between atoms: _17  and  _20
REMARK    9  A    between atoms: _20  and  _21
REMARK   10  A    between atoms: _21  and  _22
REMARK   11  A    between atoms: _25  and  _27
REMARK   12  A    between atoms: _27  and  _28
REMARK   13  A    between atoms: _27  and  _30
REMARK   14  A    between atoms: _30  and  _31
REMARK   15  A    between atoms: _36  and  _38
REMARK   16  A    between atoms: _38  and  _39
REMARK   17  A    between atoms: _41  and  _43
REMARK   18  A    between atoms: _43  and  _44
REMARK   19  A    between atoms: _46  and  _48
REMARK   20  A    between atoms: _48  and  _49
REMARK   21  A    between atoms: _48  and  _51
REMARK   22  A    between atoms: _51  and  _52
REMARK   23  A    between atoms: _55  and  _57
REMARK   24  A    between atoms: _57  and  _58
REMARK   25  A    between atoms: _60  and  _62
REMARK   26  A    between atoms: _62  and  _63
REMARK   27  A    between atoms: _62  and  _65
REMARK   28  A    between atoms: _65  and  _66
REMARK   29  A    between atoms: _66  and  _67
REMARK   30  A    between atoms: _67  and  _68
REMARK   31  A    between atoms: _77  and  _79
REMARK   32  A    between atoms: _79  and  _80
REMARK   33  A    between atoms: _79  and  _82
REMARK   34  A    between atoms: _82  and  _83
REMARK   35  A    between atoms: _86  and  _88
REMARK   36  A    between atoms: _88  and  _89
REMARK   37  A    between atoms: _92  and  _94
REMARK   38  A    between atoms: _94  and  _95
REMARK   39  A    between atoms: _94  and  _97
REMARK   40  A    between atoms: _97  and  _98
REMARK   41  A    between atoms: _104  and  _106
REMARK   42  A    between atoms: _106  and  _107
REMARK   43  A    between atoms: _106  and  _109
REMARK   44  A    between atoms: _109  and  _110
REMARK   45  A    between atoms: _115  and  _117
REMARK   46  A    between atoms: _117  and  _118
REMARK   47  A    between atoms: _117  and  _120
REMARK   48  A    between atoms: _120  and  _121
REMARK   49  A    between atoms: _124  and  _126
REMARK   50  A    between atoms: _126  and  _127
REMARK   51  A    between atoms: _126  and  _129
REMARK   52  A    between atoms: _129  and  _130
REMARK   53  A    between atoms: _135  and  _137
REMARK   54  A    between atoms: _137  and  _138
REMARK   55  A    between atoms: _137  and  _140
REMARK   56  A    between atoms: _140  and  _141
REMARK   57  A    between atoms: _147  and  _149
REMARK   58  A    between atoms: _149  and  _150
REMARK   59  A    between atoms: _149  and  _152
REMARK   60  A    between atoms: _152  and  _153
REMARK   61  A    between atoms: _159  and  _161
REMARK   62  A    between atoms: _161  and  _162
REMARK   63  A    between atoms: _161  and  _164
REMARK   64  A    between atoms: _164  and  _165
REMARK   65  A    between atoms: _165  and  _166
REMARK   66  A    between atoms: _169  and  _171
REMARK   67  A    between atoms: _171  and  _172
REMARK   68  A    between atoms: _171  and  _174
REMARK   69  A    between atoms: _174  and  _175
REMARK   70  A    between atoms: _175  and  _176
REMARK   71  A    between atoms: _176  and  _177
REMARK   72  A    between atoms: _186  and  _188
REMARK   73  A    between atoms: _188  and  _189
REMARK   74  A    between atoms: _188  and  _191
REMARK   75  A    between atoms: _191  and  _192
REMARK   76  A    between atoms: _197  and  _199
REMARK   77  A    between atoms: _199  and  _200
REMARK   78  A    between atoms: _199  and  _202
REMARK   79  A    between atoms: _202  and  _203
REMARK   80  A    between atoms: _206  and  _208
REMARK   81  A    between atoms: _208  and  _209
REMARK   82  A    between atoms: _208  and  _211
REMARK   83  A    between atoms: _211  and  _212
REMARK   84  A    between atoms: _215  and  _217
REMARK   85  A    between atoms: _217  and  _218
REMARK   86  A    between atoms: _217  and  _220
REMARK   87  A    between atoms: _220  and  _221
REMARK   88  A    between atoms: _226  and  _228
REMARK   89  A    between atoms: _228  and  _229
REMARK   90  A    between atoms: _228  and  _231
REMARK   91  A    between atoms: _231  and  _232
REMARK   92  A    between atoms: _237  and  _238
REMARK   93  A    between atoms: _240  and  _242
REMARK   94  A    between atoms: _242  and  _243
REMARK   95  A    between atoms: _242  and  _245
REMARK   96  A    between atoms: _245  and  _246
REMARK   97  A    between atoms: _249  and  _251
REMARK   98  A    between atoms: _251  and  _252
REMARK   99  A    between atoms: _251  and  _254
REMARK  100  A    between atoms: _254  and  _255
REMARK  101  A    between atoms: _260  and  _262
REMARK  102  A    between atoms: _262  and  _263
REMARK  103  A    between atoms: _262  and  _265
REMARK  104  A    between atoms: _265  and  _266
REMARK  105  A    between atoms: _271  and  _273
REMARK  106  A    between atoms: _273  and  _274
REMARK  107  A    between atoms: _273  and  _276
REMARK  108  A    between atoms: _276  and  _277
REMARK  109  A    between atoms: _280  and  _282
REMARK  110  A    between atoms: _282  and  _283
REMARK  111  A    between atoms: _282  and  _285
REMARK  112  A    between atoms: _288  and  _290
REMARK  113  A    between atoms: _290  and  _291
REMARK  114  A    between atoms: _290  and  _293
REMARK  115  A    between atoms: _293  and  _294
REMARK  116  A    between atoms: _297  and  _299
REMARK  117  A    between atoms: _299  and  _300
REMARK  118  A    between atoms: _299  and  _302
REMARK  119  A    between atoms: _302  and  _303
REMARK  120  A    between atoms: _303  and  _304
REMARK  121  A    between atoms: _307  and  _309
REMARK  122  A    between atoms: _309  and  _310
REMARK  123  A    between atoms: _313  and  _315
REMARK  124  A    between atoms: _315  and  _316
REMARK  125  A    between atoms: _315  and  _318
REMARK  126  A    between atoms: _318  and  _319
REMARK  127  A    between atoms: _322  and  _324
REMARK  128  A    between atoms: _324  and  _325
REMARK  129  A    between atoms: _324  and  _327
REMARK  130  A    between atoms: _327  and  _328
REMARK  131  A    between atoms: _328  and  _329
REMARK  132  A    between atoms: _332  and  _334
REMARK  133  A    between atoms: _334  and  _335
REMARK  134  A    between atoms: _334  and  _337
REMARK  135  A    between atoms: _337  and  _338
REMARK  136  A    between atoms: _343  and  _345
REMARK  137  A    between atoms: _345  and  _346
REMARK  138  A    between atoms: _348  and  _350
REMARK  139  A    between atoms: _350  and  _351
REMARK  140  A    between atoms: _350  and  _353
REMARK  141  A    between atoms: _356  and  _358
REMARK  142  A    between atoms: _358  and  _359
REMARK  143  A    between atoms: _362  and  _364
REMARK  144  A    between atoms: _364  and  _365
REMARK  145  A    between atoms: _364  and  _367
REMARK  146  A    between atoms: _367  and  _368
REMARK  147  A    between atoms: _373  and  _375
REMARK  148  A    between atoms: _375  and  _376
REMARK  149  A    between atoms: _375  and  _378
REMARK  150  A    between atoms: _378  and  _379
REMARK  151  A    between atoms: _379  and  _380
REMARK  152  A    between atoms: _380  and  _381
REMARK  153  A    between atoms: _381  and  _382
REMARK  154  A    between atoms: _386  and  _388
REMARK  155  A    between atoms: _388  and  _389
REMARK  156  A    between atoms: _388  and  _391
REMARK  157  A    between atoms: _391  and  _392
REMARK  158  A    between atoms: _395  and  _397
REMARK  159  A    between atoms: _397  and  _398
REMARK  160  A    between atoms: _397  and  _400
REMARK  161  A    between atoms: _400  and  _401
REMARK  162  A    between atoms: _406  and  _408
REMARK  163  A    between atoms: _408  and  _409
REMARK  164  A    between atoms: _411  and  _413
REMARK  165  A    between atoms: _413  and  _414
REMARK  166  A    between atoms: _413  and  _416
REMARK  167  A    between atoms: _416  and  _417
REMARK  168  A    between atoms: _417  and  _418
REMARK  169  A    between atoms: _418  and  _419
REMARK  170  A    between atoms: _419  and  _420
REMARK  171  A    between atoms: _424  and  _426
REMARK  172  A    between atoms: _426  and  _427
REMARK  173  A    between atoms: _426  and  _429
REMARK  174  A    between atoms: _429  and  _430
REMARK  175  A    between atoms: _430  and  _431
REMARK  176  A    between atoms: _431  and  _432
REMARK  177  A    between atoms: _441  and  _443
REMARK  178  A    between atoms: _443  and  _444
REMARK  179  A    between atoms: _443  and  _446
REMARK  180  A    between atoms: _446  and  _447
REMARK  181  A    between atoms: _452  and  _454
REMARK  182  A    between atoms: _454  and  _455
REMARK  183  A    between atoms: _454  and  _457
REMARK  184  A    between atoms: _457  and  _458
REMARK  185  A    between atoms: _463  and  _464
REMARK  186  A    between atoms: _466  and  _468
REMARK  187  A    between atoms: _468  and  _469
REMARK  188  A    between atoms: _468  and  _471
REMARK  189  A    between atoms: _471  and  _472
REMARK  190  A    between atoms: _472  and  _473
REMARK  191  A    between atoms: _473  and  _474
REMARK  192  A    between atoms: _474  and  _475
REMARK  193  A    between atoms: _479  and  _481
REMARK  194  A    between atoms: _481  and  _482
REMARK  195  A    between atoms: _481  and  _484
REMARK  196  A    between atoms: _484  and  _485
REMARK  197  A    between atoms: _487  and  _489
REMARK  198  A    between atoms: _489  and  _490
REMARK  199  A    between atoms: _489  and  _492
REMARK  200  A    between atoms: _492  and  _493
REMARK  201  A    between atoms: _496  and  _498
REMARK  202  A    between atoms: _498  and  _499
REMARK  203  A    between atoms: _498  and  _501
REMARK  204  A    between atoms: _501  and  _502
REMARK  205  A    between atoms: _502  and  _503
REMARK  206  A    between atoms: _506  and  _508
REMARK  207  A    between atoms: _508  and  _509
REMARK  208  A    between atoms: _512  and  _514
REMARK  209  A    between atoms: _514  and  _515
REMARK  210  A    between atoms: _514  and  _517
REMARK  211  A    between atoms: _517  and  _518
REMARK  212  A    between atoms: _520  and  _522
REMARK  213  A    between atoms: _522  and  _523
REMARK  214  A    between atoms: _525  and  _527
REMARK  215  A    between atoms: _527  and  _528
REMARK  216  A    between atoms: _527  and  _530
REMARK  217  A    between atoms: _530  and  _531
REMARK  218  A    between atoms: _534  and  _536
REMARK  219  A    between atoms: _536  and  _537
REMARK  220  A    between atoms: _539  and  _541
REMARK  221  A    between atoms: _541  and  _542
REMARK  222  A    between atoms: _541  and  _544
REMARK  223  A    between atoms: _544  and  _545
REMARK  224  A    between atoms: _550  and  _552
REMARK  225  A    between atoms: _552  and  _553
REMARK  226  A    between atoms: _552  and  _555
REMARK  227  A    between atoms: _555  and  _556
REMARK  228  A    between atoms: _556  and  _557
REMARK  229  A    between atoms: _564  and  _565
REMARK  230  A    between atoms: _565  and  _581
REMARK  231  A    between atoms: _566  and  _568
REMARK  232  A    between atoms: _568  and  _569
REMARK  233  A    between atoms: _569  and  _570
REMARK  234  A    between atoms: _574  and  _576
REMARK  235  A    between atoms: _576  and  _577
REMARK  236  A    between atoms: _576  and  _584
REMARK  237  A    between atoms: _577  and  _578
REMARK  238  A    between atoms: _578  and  _579
REMARK  239  A    between atoms: _579  and  _580
REMARK  240  A    between atoms: _580  and  _581
REMARK  241  A    between atoms: _586  and  _588
REMARK  242  A    between atoms: _588  and  _589
REMARK  243  A    between atoms: _588  and  _591
REMARK  244  A    between atoms: _591  and  _592
REMARK  245  A    between atoms: _595  and  _597
REMARK  246  A    between atoms: _597  and  _598
REMARK  247  A    between atoms: _600  and  _602
REMARK  248  A    between atoms: _602  and  _603
REMARK  249  A    between atoms: _606  and  _608
REMARK  250  A    between atoms: _608  and  _609
REMARK  251  A    between atoms: _608  and  _611
REMARK  252  A    between atoms: _611  and  _612
REMARK  253  A    between atoms: _617  and  _618
REMARK                            x       y       z     vdW  Elec       q    Type
REMARK                         _______ _______ _______ _____ _____    ______ ____
ROOT
ATOM      1  C   TYR A   1      33.040  31.625  20.406  0.00  0.00    +0.239 C 
ATOM      2  N   LYS A   2      32.021  31.701  21.260  0.00  0.00    -0.298 N 
ATOM      3  H   LYS A   2      32.186  32.122  22.197  0.00  0.00    +0.150 HD
ATOM      4  O   TYR A   1      32.946  31.151  19.279  0.00  0.00    -0.274 OA
ENDROOT
BRANCH   1   5
ATOM      5  CA  TYR A   1      34.380  32.171  20.893  0.00  0.00    +0.149 C 
BRANCH   5   6
ATOM      6  N   TYR A   1      34.239  33.265  21.852  0.00  0.00    -0.238 NA
ATOM      7  H   TYR A   1      34.555  33.145  22.835  0.00  0.00    +0.142 HD
ENDBRANCH   5   6
BRANCH   5   8
ATOM      8  CB  TYR A   1      35.293  31.063  21.416  0.00  0.00    +0.053 C 
BRANCH   8   9
ATOM      9  CG  TYR A   1      34.650  29.986  22.253  0.00  0.00    -0.020 A 
ATOM     10  CD2 TYR A   1      34.665  30.058  23.644  0.00  0.00    -0.001 A 
ATOM     11  CE2 TYR A   1      34.107  29.045  24.420  0.00  0.00    +0.036 A 
ATOM     12  CZ  TYR A   1      33.539  27.944  23.804  0.00  0.00    +0.134 A 
ATOM     13  CE1 TYR A   1      33.521  27.843  22.424  0.00  0.00    +0.036 A 
ATOM     14  CD1 TYR A   1      34.086  28.857  21.656  0.00  0.00    -0.001 A 
BRANCH  12  15
ATOM     15  OH  TYR A   1      32.978  26.939  24.567  0.00  0.00    -0.506 OA
ATOM     16  HH  TYR A   1      32.621  26.234  23.971  0.00  0.00    +0.292 HD
ENDBRANCH  12  15
ENDBRANCH   8   9
ENDBRANCH   5   8
ENDBRANCH   1   5
BRANCH   2  17
ATOM     17  CA  LYS A   2      30.674  31.216  20.935  0.00  0.00    +0.137 C 
BRANCH  17  18
ATOM     18  C   LYS A   2      29.943  32.183  20.004  0.00  0.00    +0.227 C 
ATOM     19  O   LYS A   2      28.885  31.864  19.462  0.00  0.00    -0.286 OA
ENDBRANCH  17  18
BRANCH  17  20
ATOM     20  CB  LYS A   2      29.869  30.975  22.215  0.00  0.00    +0.028 C 
BRANCH  20  21
ATOM     21  CG  LYS A   2      30.331  29.762  23.012  0.00  0.00    -0.000 C 
BRANCH  21  22
ATOM     22  CD  LYS A   2      29.643  29.696  24.371  0.00  0.00    -0.024 C 
BRANCH  22  23
ATOM     23  CE  LYS A   2      30.146  28.541  25.222  0.00  0.00    -0.086 C 
BRANCH  23  24
ATOM     24  NZ  LYS A   2      29.739  27.210  24.646  0.00  0.00    +0.380 N 
ATOM     25  HZ1 LYS A   2      30.100  26.446  25.253  0.00  0.00    -0.089 HD
ATOM     26  HZ2 LYS A   2      28.701  27.157  24.599  0.00  0.00    -0.089 HD
ATOM     27  HZ3 LYS A   2      30.136  27.111  23.690  0.00  0.00    -0.089 HD
ENDBRANCH  23  24
ENDBRANCH  22  23
ENDBRANCH  21  22
ENDBRANCH  20  21
ENDBRANCH  17  20
ENDBRANCH   2  17
TORSDOF 12
REMARK  Name = ../refined-set-2016/3g2h/3g2h_pocket.pdb
REMARK  253 active torsions:
REMARK  status: ('A' for Active; 'I' for Inactive)
REMARK    1  A    between atoms: _1  and  _3
REMARK    2  A    between atoms: _3  and  _4
REMARK    3  A    between atoms: _3  and  _6
REMARK    4  A    between atoms: _6  and  _7
REMARK    5  A    between atoms: _12  and  _13
REMARK    6  A    between atoms: _15  and  _17
REMARK    7  A    between atoms: _17  and  _18
REMARK    8  A    between atoms: _17  and  _20
REMARK    9  A    between atoms: _20  and  _21
REMARK   10  A    between atoms: _21  and  _22
REMARK   11  A    between atoms: _25  and  _27
REMARK   12  A    between atoms: _27  and  _28
REMARK   13  A    between atoms: _27  and  _30
REMARK   14  A    between atoms: _30  and  _31
REMARK   15  A    between atoms: _36  and  _38
REMARK   16  A    between atoms: _38  and  _39
REMARK   17  A    between atoms: _41  and  _43
REMARK   18  A    between atoms: _43  and  _44
REMARK   19  A    between atoms: _46  and  _48
REMARK   20  A    between atoms: _48  and  _49
REMARK   21  A    between atoms: _48  and  _51
REMARK   22  A    between atoms: _51  and  _52
REMARK   23  A    between atoms: _55  and  _57
REMARK   24  A    between atoms: _57  and  _58
REMARK   25  A    between atoms: _60  and  _62
REMARK   26  A    between atoms: _62  and  _63
REMARK   27  A    between atoms: _62  and  _65
REMARK   28  A    between atoms: _65  and  _66
REMARK   29  A    between atoms: _66  and  _67
REMARK   30  A    between atoms: _67  and  _68
REMARK   31  A    between atoms: _77  and  _79
REMARK   32  A    between atoms: _79  and  _80
REMARK   33  A    between atoms: _79  and  _82
REMARK   34  A    between atoms: _82  and  _83
REMARK   35  A    between atoms: _86  and  _88
REMARK   36  A    between atoms: _88  and  _89
REMARK   37  A    between atoms: _92  and  _94
REMARK   38  A    between atoms: _94  and  _95
REMARK   39  A    between atoms: _94  and  _97
REMARK   40  A    between atoms: _97  and  _98
REMARK   41  A    between atoms: _104  and  _106
REMARK   42  A    between atoms: _106  and  _107
REMARK   43  A    between atoms: _106  and  _109
REMARK   44  A    between atoms: _109  and  _110
REMARK   45  A    between atoms: _115  and  _117
REMARK   46  A    between atoms: _117  and  _118
REMARK   47  A    between atoms: _117  and  _120
REMARK   48  A    between atoms: _120  and  _121
REMARK   49  A    between atoms: _124  and  _126
REMARK   50  A    between atoms: _126  and  _127
REMARK   51  A    between atoms: _126  and  _129
REMARK   52  A    between atoms: _129  and  _130
REMARK   53  A    between atoms: _135  and  _137
REMARK   54  A    between atoms: _137  and  _138
REMARK   55  A    between atoms: _137  and  _140
REMARK   56  A    between atoms: _140  and  _141
REMARK   57  A    between atoms: _147  and  _149
REMARK   58  A    between atoms: _149  and  _150
REMARK   59  A    between atoms: _149  and  _152
REMARK   60  A    between atoms: _152  and  _153
REMARK   61  A    between atoms: _159  and  _161
REMARK   62  A    between atoms: _161  and  _162
REMARK   63  A    between atoms: _161  and  _164
REMARK   64  A    between atoms: _164  and  _165
REMARK   65  A    between atoms: _165  and  _166
REMARK   66  A    between atoms: _169  and  _171
REMARK   67  A    between atoms: _171  and  _172
REMARK   68  A    between atoms: _171  and  _174
REMARK   69  A    between atoms: _174  and  _175
REMARK   70  A    between atoms: _175  and  _176
REMARK   71  A    between atoms: _176  and  _177
REMARK   72  A    between atoms: _186  and  _188
REMARK   73  A    between atoms: _188  and  _189
REMARK   74  A    between atoms: _188  and  _191
REMARK   75  A    between atoms: _191  and  _192
REMARK   76  A    between atoms: _197  and  _199
REMARK   77  A    between atoms: _199  and  _200
REMARK   78  A    between atoms: _199  and  _202
REMARK   79  A    between atoms: _202  and  _203
REMARK   80  A    between atoms: _206  and  _208
REMARK   81  A    between atoms: _208  and  _209
REMARK   82  A    between atoms: _208  and  _211
REMARK   83  A    between atoms: _211  and  _212
REMARK   84  A    between atoms: _215  and  _217
REMARK   85  A    between atoms: _217  and  _218
REMARK   86  A    between atoms: _217  and  _220
REMARK   87  A    between atoms: _220  and  _221
REMARK   88  A    between atoms: _226  and  _228
REMARK   89  A    between atoms: _228  and  _229
REMARK   90  A    between atoms: _228  and  _231
REMARK   91  A    between atoms: _231  and  _232
REMARK   92  A    between atoms: _237  and  _238
REMARK   93  A    between atoms: _240  and  _242
REMARK   94  A    between atoms: _242  and  _243
REMARK   95  A    between atoms: _242  and  _245
REMARK   96  A    between atoms: _245  and  _246
REMARK   97  A    between atoms: _249  and  _251
REMARK   98  A    between atoms: _251  and  _252
REMARK   99  A    between atoms: _251  and  _254
REMARK  100  A    between atoms: _254  and  _255
REMARK  101  A    between atoms: _260  and  _262
REMARK  102  A    between atoms: _262  and  _263
REMARK  103  A    between atoms: _262  and  _265
REMARK  104  A    between atoms: _265  and  _266
REMARK  105  A    between atoms: _271  and  _273
REMARK  106  A    between atoms: _273  and  _274
REMARK  107  A    between atoms: _273  and  _276
REMARK  108  A    between atoms: _276  and  _277
REMARK  109  A    between atoms: _280  and  _282
REMARK  110  A    between atoms: _282  and  _283
REMARK  111  A    between atoms: _282  and  _285
REMARK  112  A    between atoms: _288  and  _290
REMARK  113  A    between atoms: _290  and  _291
REMARK  114  A    between atoms: _290  and  _293
REMARK  115  A    between atoms: _293  and  _294
REMARK  116  A    between atoms: _297  and  _299
REMARK  117  A    between atoms: _299  and  _300
REMARK  118  A    between atoms: _299  and  _302
REMARK  119  A    between atoms: _302  and  _303
REMARK  120  A    between atoms: _303  and  _304
REMARK  121  A    between atoms: _307  and  _309
REMARK  122  A    between atoms: _309  and  _310
REMARK  123  A    between atoms: _313  and  _315
REMARK  124  A    between atoms: _315  and  _316
REMARK  125  A    between atoms: _315  and  _318
REMARK  126  A    between atoms: _318  and  _319
REMARK  127  A    between atoms: _322  and  _324
REMARK  128  A    between atoms: _324  and  _325
REMARK  129  A    between atoms: _324  and  _327
REMARK  130  A    between atoms: _327  and  _328
REMARK  131  A    between atoms: _328  and  _329
REMARK  132  A    between atoms: _332  and  _334
REMARK  133  A    between atoms: _334  and  _335
REMARK  134  A    between atoms: _334  and  _337
REMARK  135  A    between atoms: _337  and  _338
REMARK  136  A    between atoms: _343  and  _345
REMARK  137  A    between atoms: _345  and  _346
REMARK  138  A    between atoms: _348  and  _350
REMARK  139  A    between atoms: _350  and  _351
REMARK  140  A    between atoms: _350  and  _353
REMARK  141  A    between atoms: _356  and  _358
REMARK  142  A    between atoms: _358  and  _359
REMARK  143  A    between atoms: _362  and  _364
REMARK  144  A    between atoms: _364  and  _365
REMARK  145  A    between atoms: _364  and  _367
REMARK  146  A    between atoms: _367  and  _368
REMARK  147  A    between atoms: _373  and  _375
REMARK  148  A    between atoms: _375  and  _376
REMARK  149  A    between atoms: _375  and  _378
REMARK  150  A    between atoms: _378  and  _379
REMARK  151  A    between atoms: _379  and  _380
REMARK  152  A    between atoms: _380  and  _381
REMARK  153  A    between atoms: _381  and  _382
REMARK  154  A    between atoms: _386  and  _388
REMARK  155  A    between atoms: _388  and  _389
REMARK  156  A    between atoms: _388  and  _391
REMARK  157  A    between atoms: _391  and  _392
REMARK  158  A    between atoms: _395  and  _397
REMARK  159  A    between atoms: _397  and  _398
REMARK  160  A    between atoms: _397  and  _400
REMARK  161  A    between atoms: _400  and  _401
REMARK  162  A    between atoms: _406  and  _408
REMARK  163  A    between atoms: _408  and  _409
REMARK  164  A    between atoms: _411  and  _413
REMARK  165  A    between atoms: _413  and  _414
REMARK  166  A    between atoms: _413  and  _416
REMARK  167  A    between atoms: _416  and  _417
REMARK  168  A    between atoms: _417  and  _418
REMARK  169  A    between atoms: _418  and  _419
REMARK  170  A    between atoms: _419  and  _420
REMARK  171  A    between atoms: _424  and  _426
REMARK  172  A    between atoms: _426  and  _427
REMARK  173  A    between atoms: _426  and  _429
REMARK  174  A    between atoms: _429  and  _430
REMARK  175  A    between atoms: _430  and  _431
REMARK  176  A    between atoms: _431  and  _432
REMARK  177  A    between atoms: _441  and  _443
REMARK  178  A    between atoms: _443  and  _444
REMARK  179  A    between atoms: _443  and  _446
REMARK  180  A    between atoms: _446  and  _447
REMARK  181  A    between atoms: _452  and  _454
REMARK  182  A    between atoms: _454  and  _455
REMARK  183  A    between atoms: _454  and  _457
REMARK  184  A    between atoms: _457  and  _458
REMARK  185  A    between atoms: _463  and  _464
REMARK  186  A    between atoms: _466  and  _468
REMARK  187  A    between atoms: _468  and  _469
REMARK  188  A    between atoms: _468  and  _471
REMARK  189  A    between atoms: _471  and  _472
REMARK  190  A    between atoms: _472  and  _473
REMARK  191  A    between atoms: _473  and  _474
REMARK  192  A    between atoms: _474  and  _475
REMARK  193  A    between atoms: _479  and  _481
REMARK  194  A    between atoms: _481  and  _482
REMARK  195  A    between atoms: _481  and  _484
REMARK  196  A    between atoms: _484  and  _485
REMARK  197  A    between atoms: _487  and  _489
REMARK  198  A    between atoms: _489  and  _490
REMARK  199  A    between atoms: _489  and  _492
REMARK  200  A    between atoms: _492  and  _493
REMARK  201  A    between atoms: _496  and  _498
REMARK  202  A    between atoms: _498  and  _499
REMARK  203  A    between atoms: _498  and  _501
REMARK  204  A    between atoms: _501  and  _502
REMARK  205  A    between atoms: _502  and  _503
REMARK  206  A    between atoms: _506  and  _508
REMARK  207  A    between atoms: _508  and  _509
REMARK  208  A    between atoms: _512  and  _514
REMARK  209  A    between atoms: _514  and  _515
REMARK  210  A    between atoms: _514  and  _517
REMARK  211  A    between atoms: _517  and  _518
REMARK  212  A    between atoms: _520  and  _522
REMARK  213  A    between atoms: _522  and  _523
REMARK  214  A    between atoms: _525  and  _527
REMARK  215  A    between atoms: _527  and  _528
REMARK  216  A    between atoms: _527  and  _530
REMARK  217  A    between atoms: _530  and  _531
REMARK  218  A    between atoms: _534  and  _536
REMARK  219  A    between atoms: _536  and  _537
REMARK  220  A    between atoms: _539  and  _541
REMARK  221  A    between atoms: _541  and  _542
REMARK  222  A    between atoms: _541  and  _544
REMARK  223  A    between atoms: _544  and  _545
REMARK  224  A    between atoms: _550  and  _552
REMARK  225  A    between atoms: _552  and  _553
REMARK  226  A    between atoms: _552  and  _555
REMARK  227  A    between atoms: _555  and  _556
REMARK  228  A    between atoms: _556  and  _557
REMARK  229  A    between atoms: _564  and  _565
REMARK  230  A    between atoms: _565  and  _581
REMARK  231  A    between atoms: _566  and  _568
REMARK  232  A    between atoms: _568  and  _569
REMARK  233  A    between atoms: _569  and  _570
REMARK  234  A    between atoms: _574  and  _576
REMARK  235  A    between atoms: _576  and  _577
REMARK  236  A    between atoms: _576  and  _584
REMARK  237  A    between atoms: _577  and  _578
REMARK  238  A    between atoms: _578  and  _579
REMARK  239  A    between atoms: _579  and  _580
REMARK  240  A    between atoms: _580  and  _581
REMARK  241  A    between atoms: _586  and  _588
REMARK  242  A    between atoms: _588  and  _589
REMARK  243  A    between atoms: _588  and  _591
REMARK  244  A    between atoms: _591  and  _592
REMARK  245  A    between atoms: _595  and  _597
REMARK  246  A    between atoms: _597  and  _598
REMARK  247  A    between atoms: _600  and  _602
REMARK  248  A    between atoms: _602  and  _603
REMARK  249  A    between atoms: _606  and  _608
REMARK  250  A    between atoms: _608  and  _609
REMARK  251  A    between atoms: _608  and  _611
REMARK  252  A    between atoms: _611  and  _612
REMARK  253  A    between atoms: _617  and  _618
REMARK                            x       y       z     vdW  Elec       q    Type
REMARK                         _______ _______ _______ _____ _____    ______ ____
ROOT
ATOM      1  CA  SER A   1      31.386  29.159  17.326  0.00  0.00    +0.163 C 
ENDROOT
BRANCH   1   2
ATOM      2  N   SER A   1      30.018  28.959  16.873  0.00  0.00    -0.237 NA
ATOM      3  H   SER A   1      29.498  28.126  17.215  0.00  0.00    +0.142 HD
ENDBRANCH   1   2
BRANCH   1   4
ATOM      4  C   SER A   1      32.353  29.113  16.140  0.00  0.00    +0.227 C 
ATOM      5  O   SER A   1      32.125  28.390  15.175  0.00  0.00    -0.287 OA
ENDBRANCH   1   4
BRANCH   1   6
ATOM      6  CB  SER A   1      31.750  28.055  18.308  0.00  0.00    +0.162 C 
BRANCH   6   7
ATOM      7  OG  SER A   1      31.596  26.785  17.681  0.00  0.00    -0.380 OA
ATOM      8  H   SER A   1      32.192  26.733  16.892  0.00  0.00    +0.211 HD
ENDBRANCH   6   7
ENDBRANCH   1   6
TORSDOF 4
REMARK  Name = ../refined-set-2016/3g2h/3g2h_pocket.pdb
REMARK  253 active torsions:
REMARK  status: ('A' for Active; 'I' for Inactive)
REMARK    1  A    between atoms: _1  and  _3
REMARK    2  A    between atoms: _3  and  _4
REMARK    3  A    between atoms: _3  and  _6
REMARK    4  A    between atoms: _6  and  _7
REMARK    5  A    between atoms: _12  and  _13
REMARK    6  A    between atoms: _15  and  _17
REMARK    7  A    between atoms: _17  and  _18
REMARK    8  A    between atoms: _17  and  _20
REMARK    9  A    between atoms: _20  and  _21
REMARK   10  A    between atoms: _21  and  _22
REMARK   11  A    between atoms: _25  and  _27
REMARK   12  A    between atoms: _27  and  _28
REMARK   13  A    between atoms: _27  and  _30
REMARK   14  A    between atoms: _30  and  _31
REMARK   15  A    between atoms: _36  and  _38
REMARK   16  A    between atoms: _38  and  _39
REMARK   17  A    between atoms: _41  and  _43
REMARK   18  A    between atoms: _43  and  _44
REMARK   19  A    between atoms: _46  and  _48
REMARK   20  A    between atoms: _48  and  _49
REMARK   21  A    between atoms: _48  and  _51
REMARK   22  A    between atoms: _51  and  _52
REMARK   23  A    between atoms: _55  and  _57
REMARK   24  A    between atoms: _57  and  _58
REMARK   25  A    between atoms: _60  and  _62
REMARK   26  A    between atoms: _62  and  _63
REMARK   27  A    between atoms: _62  and  _65
REMARK   28  A    between atoms: _65  and  _66
REMARK   29  A    between atoms: _66  and  _67
REMARK   30  A    between atoms: _67  and  _68
REMARK   31  A    between atoms: _77  and  _79
REMARK   32  A    between atoms: _79  and  _80
REMARK   33  A    between atoms: _79  and  _82
REMARK   34  A    between atoms: _82  and  _83
REMARK   35  A    between atoms: _86  and  _88
REMARK   36  A    between atoms: _88  and  _89
REMARK   37  A    between atoms: _92  and  _94
REMARK   38  A    between atoms: _94  and  _95
REMARK   39  A    between atoms: _94  and  _97
REMARK   40  A    between atoms: _97  and  _98
REMARK   41  A    between atoms: _104  and  _106
REMARK   42  A    between atoms: _106  and  _107
REMARK   43  A    between atoms: _106  and  _109
REMARK   44  A    between atoms: _109  and  _110
REMARK   45  A    between atoms: _115  and  _117
REMARK   46  A    between atoms: _117  and  _118
REMARK   47  A    between atoms: _117  and  _120
REMARK   48  A    between atoms: _120  and  _121
REMARK   49  A    between atoms: _124  and  _126
REMARK   50  A    between atoms: _126  and  _127
REMARK   51  A    between atoms: _126  and  _129
REMARK   52  A    between atoms: _129  and  _130
REMARK   53  A    between atoms: _135  and  _137
REMARK   54  A    between atoms: _137  and  _138
REMARK   55  A    between atoms: _137  and  _140
REMARK   56  A    between atoms: _140  and  _141
REMARK   57  A    between atoms: _147  and  _149
REMARK   58  A    between atoms: _149  and  _150
REMARK   59  A    between atoms: _149  and  _152
REMARK   60  A    between atoms: _152  and  _153
REMARK   61  A    between atoms: _159  and  _161
REMARK   62  A    between atoms: _161  and  _162
REMARK   63  A    between atoms: _161  and  _164
REMARK   64  A    between atoms: _164  and  _165
REMARK   65  A    between atoms: _165  and  _166
REMARK   66  A    between atoms: _169  and  _171
REMARK   67  A    between atoms: _171  and  _172
REMARK   68  A    between atoms: _171  and  _174
REMARK   69  A    between atoms: _174  and  _175
REMARK   70  A    between atoms: _175  and  _176
REMARK   71  A    between atoms: _176  and  _177
REMARK   72  A    between atoms: _186  and  _188
REMARK   73  A    between atoms: _188  and  _189
REMARK   74  A    between atoms: _188  and  _191
REMARK   75  A    between atoms: _191  and  _192
REMARK   76  A    between atoms: _197  and  _199
REMARK   77  A    between atoms: _199  and  _200
REMARK   78  A    between atoms: _199  and  _202
REMARK   79  A    between atoms: _202  and  _203
REMARK   80  A    between atoms: _206  and  _208
REMARK   81  A    between atoms: _208  and  _209
REMARK   82  A    between atoms: _208  and  _211
REMARK   83  A    between atoms: _211  and  _212
REMARK   84  A    between atoms: _215  and  _217
REMARK   85  A    between atoms: _217  and  _218
REMARK   86  A    between atoms: _217  and  _220
REMARK   87  A    between atoms: _220  and  _221
REMARK   88  A    between atoms: _226  and  _228
REMARK   89  A    between atoms: _228  and  _229
REMARK   90  A    between atoms: _228  and  _231
REMARK   91  A    between atoms: _231  and  _232
REMARK   92  A    between atoms: _237  and  _238
REMARK   93  A    between atoms: _240  and  _242
REMARK   94  A    between atoms: _242  and  _243
REMARK   95  A    between atoms: _242  and  _245
REMARK   96  A    between atoms: _245  and  _246
REMARK   97  A    between atoms: _249  and  _251
REMARK   98  A    between atoms: _251  and  _252
REMARK   99  A    between atoms: _251  and  _254
REMARK  100  A    between atoms: _254  and  _255
REMARK  101  A    between atoms: _260  and  _262
REMARK  102  A    between atoms: _262  and  _263
REMARK  103  A    between atoms: _262  and  _265
REMARK  104  A    between atoms: _265  and  _266
REMARK  105  A    between atoms: _271  and  _273
REMARK  106  A    between atoms: _273  and  _274
REMARK  107  A    between atoms: _273  and  _276
REMARK  108  A    between atoms: _276  and  _277
REMARK  109  A    between atoms: _280  and  _282
REMARK  110  A    between atoms: _282  and  _283
REMARK  111  A    between atoms: _282  and  _285
REMARK  112  A    between atoms: _288  and  _290
REMARK  113  A    between atoms: _290  and  _291
REMARK  114  A    between atoms: _290  and  _293
REMARK  115  A    between atoms: _293  and  _294
REMARK  116  A    between atoms: _297  and  _299
REMARK  117  A    between atoms: _299  and  _300
REMARK  118  A    between atoms: _299  and  _302
REMARK  119  A    between atoms: _302  and  _303
REMARK  120  A    between atoms: _303  and  _304
REMARK  121  A    between atoms: _307  and  _309
REMARK  122  A    between atoms: _309  and  _310
REMARK  123  A    between atoms: _313  and  _315
REMARK  124  A    between atoms: _315  and  _316
REMARK  125  A    between atoms: _315  and  _318
REMARK  126  A    between atoms: _318  and  _319
REMARK  127  A    between atoms: _322  and  _324
REMARK  128  A    between atoms: _324  and  _325
REMARK  129  A    between atoms: _324  and  _327
REMARK  130  A    between atoms: _327  and  _328
REMARK  131  A    between atoms: _328  and  _329
REMARK  132  A    between atoms: _332  and  _334
REMARK  133  A    between atoms: _334  and  _335
REMARK  134  A    between atoms: _334  and  _337
REMARK  135  A    between atoms: _337  and  _338
REMARK  136  A    between atoms: _343  and  _345
REMARK  137  A    between atoms: _345  and  _346
REMARK  138  A    between atoms: _348  and  _350
REMARK  139  A    between atoms: _350  and  _351
REMARK  140  A    between atoms: _350  and  _353
REMARK  141  A    between atoms: _356  and  _358
REMARK  142  A    between atoms: _358  and  _359
REMARK  143  A    between atoms: _362  and  _364
REMARK  144  A    between atoms: _364  and  _365
REMARK  145  A    between atoms: _364  and  _367
REMARK  146  A    between atoms: _367  and  _368
REMARK  147  A    between atoms: _373  and  _375
REMARK  148  A    between atoms: _375  and  _376
REMARK  149  A    between atoms: _375  and  _378
REMARK  150  A    between atoms: _378  and  _379
REMARK  151  A    between atoms: _379  and  _380
REMARK  152  A    between atoms: _380  and  _381
REMARK  153  A    between atoms: _381  and  _382
REMARK  154  A    between atoms: _386  and  _388
REMARK  155  A    between atoms: _388  and  _389
REMARK  156  A    between atoms: _388  and  _391
REMARK  157  A    between atoms: _391  and  _392
REMARK  158  A    between atoms: _395  and  _397
REMARK  159  A    between atoms: _397  and  _398
REMARK  160  A    between atoms: _397  and  _400
REMARK  161  A    between atoms: _400  and  _401
REMARK  162  A    between atoms: _406  and  _408
REMARK  163  A    between atoms: _408  and  _409
REMARK  164  A    between atoms: _411  and  _413
REMARK  165  A    between atoms: _413  and  _414
REMARK  166  A    between atoms: _413  and  _416
REMARK  167  A    between atoms: _416  and  _417
REMARK  168  A    between atoms: _417  and  _418
REMARK  169  A    between atoms: _418  and  _419
REMARK  170  A    between atoms: _419  and  _420
REMARK  171  A    between atoms: _424  and  _426
REMARK  172  A    between atoms: _426  and  _427
REMARK  173  A    between atoms: _426  and  _429
REMARK  174  A    between atoms: _429  and  _430
REMARK  175  A    between atoms: _430  and  _431
REMARK  176  A    between atoms: _431  and  _432
REMARK  177  A    between atoms: _441  and  _443
REMARK  178  A    between atoms: _443  and  _444
REMARK  179  A    between atoms: _443  and  _446
REMARK  180  A    between atoms: _446  and  _447
REMARK  181  A    between atoms: _452  and  _454
REMARK  182  A    between atoms: _454  and  _455
REMARK  183  A    between atoms: _454  and  _457
REMARK  184  A    between atoms: _457  and  _458
REMARK  185  A    between atoms: _463  and  _464
REMARK  186  A    between atoms: _466  and  _468
REMARK  187  A    between atoms: _468  and  _469
REMARK  188  A    between atoms: _468  and  _471
REMARK  189  A    between atoms: _471  and  _472
REMARK  190  A    between atoms: _472  and  _473
REMARK  191  A    between atoms: _473  and  _474
REMARK  192  A    between atoms: _474  and  _475
REMARK  193  A    between atoms: _479  and  _481
REMARK  194  A    between atoms: _481  and  _482
REMARK  195  A    between atoms: _481  and  _484
REMARK  196  A    between atoms: _484  and  _485
REMARK  197  A    between atoms: _487  and  _489
REMARK  198  A    between atoms: _489  and  _490
REMARK  199  A    between atoms: _489  and  _492
REMARK  200  A    between atoms: _492  and  _493
REMARK  201  A    between atoms: _496  and  _498
REMARK  202  A    between atoms: _498  and  _499
REMARK  203  A    between atoms: _498  and  _501
REMARK  204  A    between atoms: _501  and  _502
REMARK  205  A    between atoms: _502  and  _503
REMARK  206  A    between atoms: _506  and  _508
REMARK  207  A    between atoms: _508  and  _509
REMARK  208  A    between atoms: _512  and  _514
REMARK  209  A    between atoms: _514  and  _515
REMARK  210  A    between atoms: _514  and  _517
REMARK  211  A    between atoms: _517  and  _518
REMARK  212  A    between atoms: _520  and  _522
REMARK  213  A    between atoms: _522  and  _523
REMARK  214  A    between atoms: _525  and  _527
REMARK  215  A    between atoms: _527  and  _528
REMARK  216  A    between atoms: _527  and  _530
REMARK  217  A    between atoms: _530  and  _531
REMARK  218  A    between atoms: _534  and  _536
REMARK  219  A    between atoms: _536  and  _537
REMARK  220  A    between atoms: _539  and  _541
REMARK  221  A    between atoms: _541  and  _542
REMARK  222  A    between atoms: _541  and  _544
REMARK  223  A    between atoms: _544  and  _545
REMARK  224  A    between atoms: _550  and  _552
REMARK  225  A    between atoms: _552  and  _553
REMARK  226  A    between atoms: _552  and  _555
REMARK  227  A    between atoms: _555  and  _556
REMARK  228  A    between atoms: _556  and  _557
REMARK  229  A    between atoms: _564  and  _565
REMARK  230  A    between atoms: _565  and  _581
REMARK  231  A    between atoms: _566  and  _568
REMARK  232  A    between atoms: _568  and  _569
REMARK  233  A    between atoms: _569  and  _570
REMARK  234  A    between atoms: _574  and  _576
REMARK  235  A    between atoms: _576  and  _577
REMARK  236  A    between atoms: _576  and  _584
REMARK  237  A    between atoms: _577  and  _578
REMARK  238  A    between atoms: _578  and  _579
REMARK  239  A    between atoms: _579  and  _580
REMARK  240  A    between atoms: _580  and  _581
REMARK  241  A    between atoms: _586  and  _588
REMARK  242  A    between atoms: _588  and  _589
REMARK  243  A    between atoms: _588  and  _591
REMARK  244  A    between atoms: _591  and  _592
REMARK  245  A    between atoms: _595  and  _597
REMARK  246  A    between atoms: _597  and  _598
REMARK  247  A    between atoms: _600  and  _602
REMARK  248  A    between atoms: _602  and  _603
REMARK  249  A    between atoms: _606  and  _608
REMARK  250  A    between atoms: _608  and  _609
REMARK  251  A    between atoms: _608  and  _611
REMARK  252  A    between atoms: _611  and  _612
REMARK  253  A    between atoms: _617  and  _618
REMARK                            x       y       z     vdW  Elec       q    Type
REMARK                         _______ _______ _______ _____ _____    ______ ____
ROOT
ATOM      1  CA  GLY A   7      23.384  22.235  23.734  0.00  0.00    +0.176 C 
ENDROOT
BRANCH   1   2
ATOM      2  C   GLY A   7      22.885  21.887  22.343  0.00  0.00    +0.243 C 
ATOM      3  O   GLY A   7      21.694  21.639  22.152  0.00  0.00    -0.273 OA
ATOM      4  N   ASN A   8      23.807  21.868  21.377  0.00  0.00    -0.297 N 
ATOM      5  H   ASN A   8      24.780  22.152  21.609  0.00  0.00    +0.150 HD
BRANCH   4   6
ATOM      6  CA  ASN A   8      23.500  21.461  19.998  0.00  0.00    +0.158 C 
BRANCH   6   7
ATOM      7  C   ASN A   8      22.722  20.146  19.898  0.00  0.00    +0.241 C 
ATOM      8  N   MET A   9      23.153  19.154  20.679  0.00  0.00    -0.297 N 
ATOM      9  H   MET A   9      23.974  19.326  21.294  0.00  0.00    +0.150 HD
ATOM     10  O   ASN A   8      21.745  20.049  19.148  0.00  0.00    -0.273 OA
BRANCH   8  11
ATOM     11  CA  MET A   9      22.523  17.837  20.708  0.00  0.00    +0.149 C 
BRANCH  11  12
ATOM     12  C   MET A   9      21.127  17.885  21.314  0.00  0.00    +0.241 C 
ATOM     13  N   UNK A  10      20.967  18.639  22.405  0.00  0.00    -0.298 N 
ATOM     14  H   UNK A  10      21.796  19.106  22.825  0.00  0.00    +0.150 HD
ATOM     15  O   MET A   9      20.205  17.266  20.784  0.00  0.00    -0.273 OA
BRANCH  13  16
ATOM     16  C   UNK A  10      19.648  18.826  23.028  0.00  0.00    +0.137 C 
BRANCH  16  17
ATOM     17  C   UNK A  10      18.615  19.405  22.054  0.00  0.00    +0.227 C 
ATOM     18  O   UNK A  10      17.459  18.959  22.021  0.00  0.00    -0.286 OA
ENDBRANCH  16  17
BRANCH  16  19
ATOM     19  C   UNK A  10      19.748  19.724  24.267  0.00  0.00    +0.028 C 
BRANCH  19  20
ATOM     20  C   UNK A  10      20.778  19.290  25.308  0.00  0.00    -0.000 C 
BRANCH  20  21
ATOM     21  C   UNK A  10      21.055  20.417  26.294  0.00  0.00    -0.023 C 
BRANCH  21  22
ATOM     22  C   UNK A  10      22.275  20.117  27.171  0.00  0.00    -0.081 C 
BRANCH  22  23
ATOM     23  N   UNK A  10      22.520  21.247  28.113  0.00  0.00    +0.387 N 
ATOM     24  H   UNK A  10      21.735  21.925  28.042  0.00  0.00    -0.084 HD
ATOM     25  H   UNK A  10      22.570  20.876  29.083  0.00  0.00    -0.084 HD
BRANCH  23  26
ATOM     26  C   UNK A  10      23.670  21.875  27.823  0.00  0.00    -0.051 C 
BRANCH  26  27
ATOM     27  C   UNK A  10      23.889  23.107  28.681  0.00  0.00    -0.007 C 
ATOM     28  C   UNK A  10      25.018  23.912  28.468  0.00  0.00    +0.023 C 
ATOM     29  C   UNK A  10      25.229  25.062  29.220  0.00  0.00    +0.091 C 
ATOM     30  N   UNK A  10      24.339  25.397  30.212  0.00  0.00    -0.263 NA
ATOM     31  C   UNK A  10      23.227  24.616  30.450  0.00  0.00    +0.164 C 
ATOM     32  C   UNK A  10      22.280  25.018  31.542  0.00  0.00    +0.035 C 
ATOM     33  C   UNK A  10      22.986  23.470  29.692  0.00  0.00    +0.189 C 
ATOM     34  O   UNK A  10      21.980  22.783  29.937  0.00  0.00    -0.290 OA
BRANCH  28  35
ATOM     35  C   UNK A  10      26.008  23.606  27.388  0.00  0.00    +0.181 C 
BRANCH  35  36
ATOM     36  O   UNK A  10      25.733  24.347  26.187  0.00  0.00    -0.265 OA
BRANCH  36  37
ATOM     37  P   UNK A  10      26.749  24.522  24.957  0.00  0.00    +0.533 P 
ATOM     38  O   UNK A  10      27.164  23.163  24.566  0.00  0.00    -0.115 OA
ATOM     39  O   UNK A  10      27.803  25.382  25.493  0.00  0.00    -0.115 OA
ATOM     40  O   UNK A  10      25.849  25.165  23.979  0.00  0.00    -0.222 OA
ENDBRANCH  36  37
ENDBRANCH  35  36
ENDBRANCH  28  35
ENDBRANCH  26  27
ENDBRANCH  23  26
ENDBRANCH  22  23
ENDBRANCH  21  22
ENDBRANCH  20  21
ENDBRANCH  19  20
ENDBRANCH  16  19
ENDBRANCH  13  16
ENDBRANCH  11  12
BRANCH  11  41
ATOM     41  CB  MET A   9      23.405  16.848  21.465  0.00  0.00    +0.041 C 
BRANCH  41  42
ATOM     42  CG  MET A   9      24.804  16.735  20.888  0.00  0.00    +0.060 C 
BRANCH  42  43
ATOM     43  SD  MET A   9      25.844  15.881  22.054  0.00  0.00    -0.139 S 
ATOM     44  CE  MET A   9      27.445  15.976  21.261  0.00  0.00    +0.069 C 
ENDBRANCH  42  43
ENDBRANCH  41  42
ENDBRANCH  11  41
ENDBRANCH   8  11
ENDBRANCH   6   7
BRANCH   6  45
ATOM     45  CB  ASN A   8      24.759  21.436  19.101  0.00  0.00    +0.114 C 
BRANCH  45  46
ATOM     46  CG  ASN A   8      25.931  20.643  19.696  0.00  0.00    +0.222 C 
ATOM     47  ND2 ASN A   8      25.742  20.053  20.861  0.00  0.00    -0.329 N 
ATOM     48 HD21 ASN A   8      24.823  20.133  21.342  0.00  0.00    +0.145 HD
ATOM     49 HD22 ASN A   8      26.512  19.508  21.299  0.00  0.00    +0.145 HD
ATOM     50  OD1 ASN A   8      27.006  20.575  19.088  0.00  0.00    -0.275 OA
ENDBRANCH  45  46
ENDBRANCH   6  45
ENDBRANCH   4   6
ENDBRANCH   1   2
BRANCH   1  52
ATOM     51  C   THR A   6      24.724  20.205  23.877  0.00  0.00    +0.243 C 
ATOM     52  N   GLY A   7      24.630  21.528  23.998  0.00  0.00    -0.295 N 
ATOM     53  H   GLY A   7      25.468  22.071  24.289  0.00  0.00    +0.150 HD
ATOM     54  O   THR A   6      23.756  19.476  23.652  0.00  0.00    -0.273 OA
BRANCH  51  55
ATOM     55  CA  THR A   6      26.116  19.614  24.004  0.00  0.00    +0.176 C 
BRANCH  55  57
ATOM     56  C   GLY A   5      28.146  20.368  22.883  0.00  0.00    +0.243 C 
ATOM     57  N   THR A   6      27.115  20.628  23.681  0.00  0.00    -0.295 N 
ATOM     58  H   THR A   6      27.018  21.581  24.087  0.00  0.00    +0.150 HD
ATOM     59  O   GLY A   5      28.425  19.232  22.500  0.00  0.00    -0.273 OA
BRANCH  56  60
ATOM     60  CA  GLY A   5      29.027  21.542  22.494  0.00  0.00    +0.176 C 
BRANCH  60  62
ATOM     61  C   SER A   4      30.784  20.424  21.227  0.00  0.00    +0.243 C 
ATOM     62  N   GLY A   5      30.375  21.002  22.353  0.00  0.00    -0.295 N 
ATOM     63  H   GLY A   5      31.034  21.071  23.155  0.00  0.00    +0.150 HD
ATOM     64  O   SER A   4      30.204  20.544  20.142  0.00  0.00    -0.273 OA
BRANCH  61  65
ATOM     65  CA  SER A   4      32.061  19.619  21.333  0.00  0.00    +0.178 C 
BRANCH  65  67
ATOM     66  C   ALA A   3      34.369  20.343  21.314  0.00  0.00    +0.241 C 
ATOM     67  N   SER A   4      33.144  20.467  21.810  0.00  0.00    -0.295 N 
ATOM     68  H   SER A   4      32.956  21.177  22.547  0.00  0.00    +0.150 HD
ATOM     69  O   ALA A   3      34.661  19.491  20.474  0.00  0.00    -0.273 OA
BRANCH  66  70
ATOM     70  CA  ALA A   3      35.416  21.336  21.821  0.00  0.00    +0.149 C 
ATOM     71  CB  ALA A   3      35.889  20.961  23.214  0.00  0.00    +0.031 C 
BRANCH  70  73
ATOM     72  C   GLU A   2      34.353  23.208  20.686  0.00  0.00    +0.241 C 
ATOM     73  N   ALA A   3      34.907  22.710  21.789  0.00  0.00    -0.297 N 
ATOM     74  H   ALA A   3      34.980  23.304  22.640  0.00  0.00    +0.150 HD
ATOM     75  O   GLU A   2      34.160  22.539  19.684  0.00  0.00    -0.273 OA
BRANCH  72  76
ATOM     76  CA  GLU A   2      33.965  24.672  20.693  0.00  0.00    +0.149 C 
BRANCH  76  79
ATOM     77  C   THR A   1      36.065  25.849  20.299  0.00  0.00    +0.241 C 
ATOM     78  O   THR A   1      36.391  25.741  21.479  0.00  0.00    -0.274 OA
ATOM     79  N   GLU A   2      34.903  25.394  19.830  0.00  0.00    -0.297 N 
ATOM     80  H   GLU A   2      34.658  25.555  18.832  0.00  0.00    +0.150 HD
BRANCH  77  81
ATOM     81  CA  THR A   1      37.007  26.538  19.307  0.00  0.00    +0.172 C 
BRANCH  81  82
ATOM     82  N   THR A   1      37.036  25.950  17.968  0.00  0.00    -0.236 NA
ATOM     83  H   THR A   1      36.205  26.037  17.349  0.00  0.00    +0.142 HD
ENDBRANCH  81  82
BRANCH  81  84
ATOM     84  CB  THR A   1      36.698  28.043  19.263  0.00  0.00    +0.135 C 
ATOM     85  CG2 THR A   1      37.758  28.794  18.439  0.00  0.00    +0.034 C 
BRANCH  84  86
ATOM     86  OG1 THR A   1      35.401  28.250  18.692  0.00  0.00    -0.383 OA
ATOM     87  HG1 THR A   1      35.384  27.883  17.773  0.00  0.00    +0.210 HD
ENDBRANCH  84  86
ENDBRANCH  81  84
ENDBRANCH  77  81
ENDBRANCH  76  79
BRANCH  76  88
ATOM     88  CB  GLU A   2      32.529  24.824  20.183  0.00  0.00    +0.041 C 
BRANCH  88  89
ATOM     89  CG  GLU A   2      31.484  24.287  21.143  0.00  0.00    +0.116 C 
BRANCH  89  90
ATOM     90  CD  GLU A   2      31.332  25.181  22.342  0.00  0.00    +0.365 C 
ATOM     91  OE2 GLU A   2      31.968  24.892  23.376  0.00  0.00    -0.246 OA
ATOM     92  OE1 GLU A   2      30.613  26.198  22.234  0.00  0.00    -0.246 OA
ENDBRANCH  89  90
ENDBRANCH  88  89
ENDBRANCH  76  88
ENDBRANCH  72  76
ENDBRANCH  70  73
ENDBRANCH  66  70
ENDBRANCH  65  67
BRANCH  65  93
ATOM     93  CB  SER A   4      31.857  18.426  22.260  0.00  0.00    +0.166 C 
BRANCH  93  94
ATOM     94  OG  SER A   4      30.638  17.759  21.972  0.00  0.00    -0.380 OA
ATOM     95  H   SER A   4      29.883  18.388  22.093  0.00  0.00    +0.211 HD
ENDBRANCH  93  94
ENDBRANCH  65  93
ENDBRANCH  61  65
ENDBRANCH  60  62
ENDBRANCH  56  60
ENDBRANCH  55  57
BRANCH  55  96
ATOM     96  CB  THR A   6      26.297  19.013  25.409  0.00  0.00    +0.137 C 
ATOM     97  CG2 THR A   6      27.554  18.137  25.481  0.00  0.00    +0.034 C 
BRANCH  96  98
ATOM     98  OG1 THR A   6      26.388  20.067  26.366  0.00  0.00    -0.382 OA
ATOM     99  HG1 THR A   6      26.504  19.681  27.270  0.00  0.00    +0.210 HD
ENDBRANCH  96  98
ENDBRANCH  55  96
ENDBRANCH  51  55
ENDBRANCH   1  52
TORSDOF 44
REMARK  Name = ../refined-set-2016/3g2h/3g2h_pocket.pdb
REMARK  253 active torsions:
REMARK  status: ('A' for Active; 'I' for Inactive)
REMARK    1  A    between atoms: _1  and  _3
REMARK    2  A    between atoms: _3  and  _4
REMARK    3  A    between atoms: _3  and  _6
REMARK    4  A    between atoms: _6  and  _7
REMARK    5  A    between atoms: _12  and  _13
REMARK    6  A    between atoms: _15  and  _17
REMARK    7  A    between atoms: _17  and  _18
REMARK    8  A    between atoms: _17  and  _20
REMARK    9  A    between atoms: _20  and  _21
REMARK   10  A    between atoms: _21  and  _22
REMARK   11  A    between atoms: _25  and  _27
REMARK   12  A    between atoms: _27  and  _28
REMARK   13  A    between atoms: _27  and  _30
REMARK   14  A    between atoms: _30  and  _31
REMARK   15  A    between atoms: _36  and  _38
REMARK   16  A    between atoms: _38  and  _39
REMARK   17  A    between atoms: _41  and  _43
REMARK   18  A    between atoms: _43  and  _44
REMARK   19  A    between atoms: _46  and  _48
REMARK   20  A    between atoms: _48  and  _49
REMARK   21  A    between atoms: _48  and  _51
REMARK   22  A    between atoms: _51  and  _52
REMARK   23  A    between atoms: _55  and  _57
REMARK   24  A    between atoms: _57  and  _58
REMARK   25  A    between atoms: _60  and  _62
REMARK   26  A    between atoms: _62  and  _63
REMARK   27  A    between atoms: _62  and  _65
REMARK   28  A    between atoms: _65  and  _66
REMARK   29  A    between atoms: _66  and  _67
REMARK   30  A    between atoms: _67  and  _68
REMARK   31  A    between atoms: _77  and  _79
REMARK   32  A    between atoms: _79  and  _80
REMARK   33  A    between atoms: _79  and  _82
REMARK   34  A    between atoms: _82  and  _83
REMARK   35  A    between atoms: _86  and  _88
REMARK   36  A    between atoms: _88  and  _89
REMARK   37  A    between atoms: _92  and  _94
REMARK   38  A    between atoms: _94  and  _95
REMARK   39  A    between atoms: _94  and  _97
REMARK   40  A    between atoms: _97  and  _98
REMARK   41  A    between atoms: _104  and  _106
REMARK   42  A    between atoms: _106  and  _107
REMARK   43  A    between atoms: _106  and  _109
REMARK   44  A    between atoms: _109  and  _110
REMARK   45  A    between atoms: _115  and  _117
REMARK   46  A    between atoms: _117  and  _118
REMARK   47  A    between atoms: _117  and  _120
REMARK   48  A    between atoms: _120  and  _121
REMARK   49  A    between atoms: _124  and  _126
REMARK   50  A    between atoms: _126  and  _127
REMARK   51  A    between atoms: _126  and  _129
REMARK   52  A    between atoms: _129  and  _130
REMARK   53  A    between atoms: _135  and  _137
REMARK   54  A    between atoms: _137  and  _138
REMARK   55  A    between atoms: _137  and  _140
REMARK   56  A    between atoms: _140  and  _141
REMARK   57  A    between atoms: _147  and  _149
REMARK   58  A    between atoms: _149  and  _150
REMARK   59  A    between atoms: _149  and  _152
REMARK   60  A    between atoms: _152  and  _153
REMARK   61  A    between atoms: _159  and  _161
REMARK   62  A    between atoms: _161  and  _162
REMARK   63  A    between atoms: _161  and  _164
REMARK   64  A    between atoms: _164  and  _165
REMARK   65  A    between atoms: _165  and  _166
REMARK   66  A    between atoms: _169  and  _171
REMARK   67  A    between atoms: _171  and  _172
REMARK   68  A    between atoms: _171  and  _174
REMARK   69  A    between atoms: _174  and  _175
REMARK   70  A    between atoms: _175  and  _176
REMARK   71  A    between atoms: _176  and  _177
REMARK   72  A    between atoms: _186  and  _188
REMARK   73  A    between atoms: _188  and  _189
REMARK   74  A    between atoms: _188  and  _191
REMARK   75  A    between atoms: _191  and  _192
REMARK   76  A    between atoms: _197  and  _199
REMARK   77  A    between atoms: _199  and  _200
REMARK   78  A    between atoms: _199  and  _202
REMARK   79  A    between atoms: _202  and  _203
REMARK   80  A    between atoms: _206  and  _208
REMARK   81  A    between atoms: _208  and  _209
REMARK   82  A    between atoms: _208  and  _211
REMARK   83  A    between atoms: _211  and  _212
REMARK   84  A    between atoms: _215  and  _217
REMARK   85  A    between atoms: _217  and  _218
REMARK   86  A    between atoms: _217  and  _220
REMARK   87  A    between atoms: _220  and  _221
REMARK   88  A    between atoms: _226  and  _228
REMARK   89  A    between atoms: _228  and  _229
REMARK   90  A    between atoms: _228  and  _231
REMARK   91  A    between atoms: _231  and  _232
REMARK   92  A    between atoms: _237  and  _238
REMARK   93  A    between atoms: _240  and  _242
REMARK   94  A    between atoms: _242  and  _243
REMARK   95  A    between atoms: _242  and  _245
REMARK   96  A    between atoms: _245  and  _246
REMARK   97  A    between atoms: _249  and  _251
REMARK   98  A    between atoms: _251  and  _252
REMARK   99  A    between atoms: _251  and  _254
REMARK  100  A    between atoms: _254  and  _255
REMARK  101  A    between atoms: _260  and  _262
REMARK  102  A    between atoms: _262  and  _263
REMARK  103  A    between atoms: _262  and  _265
REMARK  104  A    between atoms: _265  and  _266
REMARK  105  A    between atoms: _271  and  _273
REMARK  106  A    between atoms: _273  and  _274
REMARK  107  A    between atoms: _273  and  _276
REMARK  108  A    between atoms: _276  and  _277
REMARK  109  A    between atoms: _280  and  _282
REMARK  110  A    between atoms: _282  and  _283
REMARK  111  A    between atoms: _282  and  _285
REMARK  112  A    between atoms: _288  and  _290
REMARK  113  A    between atoms: _290  and  _291
REMARK  114  A    between atoms: _290  and  _293
REMARK  115  A    between atoms: _293  and  _294
REMARK  116  A    between atoms: _297  and  _299
REMARK  117  A    between atoms: _299  and  _300
REMARK  118  A    between atoms: _299  and  _302
REMARK  119  A    between atoms: _302  and  _303
REMARK  120  A    between atoms: _303  and  _304
REMARK  121  A    between atoms: _307  and  _309
REMARK  122  A    between atoms: _309  and  _310
REMARK  123  A    between atoms: _313  and  _315
REMARK  124  A    between atoms: _315  and  _316
REMARK  125  A    between atoms: _315  and  _318
REMARK  126  A    between atoms: _318  and  _319
REMARK  127  A    between atoms: _322  and  _324
REMARK  128  A    between atoms: _324  and  _325
REMARK  129  A    between atoms: _324  and  _327
REMARK  130  A    between atoms: _327  and  _328
REMARK  131  A    between atoms: _328  and  _329
REMARK  132  A    between atoms: _332  and  _334
REMARK  133  A    between atoms: _334  and  _335
REMARK  134  A    between atoms: _334  and  _337
REMARK  135  A    between atoms: _337  and  _338
REMARK  136  A    between atoms: _343  and  _345
REMARK  137  A    between atoms: _345  and  _346
REMARK  138  A    between atoms: _348  and  _350
REMARK  139  A    between atoms: _350  and  _351
REMARK  140  A    between atoms: _350  and  _353
REMARK  141  A    between atoms: _356  and  _358
REMARK  142  A    between atoms: _358  and  _359
REMARK  143  A    between atoms: _362  and  _364
REMARK  144  A    between atoms: _364  and  _365
REMARK  145  A    between atoms: _364  and  _367
REMARK  146  A    between atoms: _367  and  _368
REMARK  147  A    between atoms: _373  and  _375
REMARK  148  A    between atoms: _375  and  _376
REMARK  149  A    between atoms: _375  and  _378
REMARK  150  A    between atoms: _378  and  _379
REMARK  151  A    between atoms: _379  and  _380
REMARK  152  A    between atoms: _380  and  _381
REMARK  153  A    between atoms: _381  and  _382
REMARK  154  A    between atoms: _386  and  _388
REMARK  155  A    between atoms: _388  and  _389
REMARK  156  A    between atoms: _388  and  _391
REMARK  157  A    between atoms: _391  and  _392
REMARK  158  A    between atoms: _395  and  _397
REMARK  159  A    between atoms: _397  and  _398
REMARK  160  A    between atoms: _397  and  _400
REMARK  161  A    between atoms: _400  and  _401
REMARK  162  A    between atoms: _406  and  _408
REMARK  163  A    between atoms: _408  and  _409
REMARK  164  A    between atoms: _411  and  _413
REMARK  165  A    between atoms: _413  and  _414
REMARK  166  A    between atoms: _413  and  _416
REMARK  167  A    between atoms: _416  and  _417
REMARK  168  A    between atoms: _417  and  _418
REMARK  169  A    between atoms: _418  and  _419
REMARK  170  A    between atoms: _419  and  _420
REMARK  171  A    between atoms: _424  and  _426
REMARK  172  A    between atoms: _426  and  _427
REMARK  173  A    between atoms: _426  and  _429
REMARK  174  A    between atoms: _429  and  _430
REMARK  175  A    between atoms: _430  and  _431
REMARK  176  A    between atoms: _431  and  _432
REMARK  177  A    between atoms: _441  and  _443
REMARK  178  A    between atoms: _443  and  _444
REMARK  179  A    between atoms: _443  and  _446
REMARK  180  A    between atoms: _446  and  _447
REMARK  181  A    between atoms: _452  and  _454
REMARK  182  A    between atoms: _454  and  _455
REMARK  183  A    between atoms: _454  and  _457
REMARK  184  A    between atoms: _457  and  _458
REMARK  185  A    between atoms: _463  and  _464
REMARK  186  A    between atoms: _466  and  _468
REMARK  187  A    between atoms: _468  and  _469
REMARK  188  A    between atoms: _468  and  _471
REMARK  189  A    between atoms: _471  and  _472
REMARK  190  A    between atoms: _472  and  _473
REMARK  191  A    between atoms: _473  and  _474
REMARK  192  A    between atoms: _474  and  _475
REMARK  193  A    between atoms: _479  and  _481
REMARK  194  A    between atoms: _481  and  _482
REMARK  195  A    between atoms: _481  and  _484
REMARK  196  A    between atoms: _484  and  _485
REMARK  197  A    between atoms: _487  and  _489
REMARK  198  A    between atoms: _489  and  _490
REMARK  199  A    between atoms: _489  and  _492
REMARK  200  A    between atoms: _492  and  _493
REMARK  201  A    between atoms: _496  and  _498
REMARK  202  A    between atoms: _498  and  _499
REMARK  203  A    between atoms: _498  and  _501
REMARK  204  A    between atoms: _501  and  _502
REMARK  205  A    between atoms: _502  and  _503
REMARK  206  A    between atoms: _506  and  _508
REMARK  207  A    between atoms: _508  and  _509
REMARK  208  A    between atoms: _512  and  _514
REMARK  209  A    between atoms: _514  and  _515
REMARK  210  A    between atoms: _514  and  _517
REMARK  211  A    between atoms: _517  and  _518
REMARK  212  A    between atoms: _520  and  _522
REMARK  213  A    between atoms: _522  and  _523
REMARK  214  A    between atoms: _525  and  _527
REMARK  215  A    between atoms: _527  and  _528
REMARK  216  A    between atoms: _527  and  _530
REMARK  217  A    between atoms: _530  and  _531
REMARK  218  A    between atoms: _534  and  _536
REMARK  219  A    between atoms: _536  and  _537
REMARK  220  A    between atoms: _539  and  _541
REMARK  221  A    between atoms: _541  and  _542
REMARK  222  A    between atoms: _541  and  _544
REMARK  223  A    between atoms: _544  and  _545
REMARK  224  A    between atoms: _550  and  _552
REMARK  225  A    between atoms: _552  and  _553
REMARK  226  A    between atoms: _552  and  _555
REMARK  227  A    between atoms: _555  and  _556
REMARK  228  A    between atoms: _556  and  _557
REMARK  229  A    between atoms: _564  and  _565
REMARK  230  A    between atoms: _565  and  _581
REMARK  231  A    between atoms: _566  and  _568
REMARK  232  A    between atoms: _568  and  _569
REMARK  233  A    between atoms: _569  and  _570
REMARK  234  A    between atoms: _574  and  _576
REMARK  235  A    between atoms: _576  and  _577
REMARK  236  A    between atoms: _576  and  _584
REMARK  237  A    between atoms: _577  and  _578
REMARK  238  A    between atoms: _578  and  _579
REMARK  239  A    between atoms: _579  and  _580
REMARK  240  A    between atoms: _580  and  _581
REMARK  241  A    between atoms: _586  and  _588
REMARK  242  A    between atoms: _588  and  _589
REMARK  243  A    between atoms: _588  and  _591
REMARK  244  A    between atoms: _591  and  _592
REMARK  245  A    between atoms: _595  and  _597
REMARK  246  A    between atoms: _597  and  _598
REMARK  247  A    between atoms: _600  and  _602
REMARK  248  A    between atoms: _602  and  _603
REMARK  249  A    between atoms: _606  and  _608
REMARK  250  A    between atoms: _608  and  _609
REMARK  251  A    between atoms: _608  and  _611
REMARK  252  A    between atoms: _611  and  _612
REMARK  253  A    between atoms: _617  and  _618
REMARK                            x       y       z     vdW  Elec       q    Type
REMARK                         _______ _______ _______ _____ _____    ______ ____
ROOT
ATOM      1  C   ASP A   1      32.391  21.878  15.819  0.00  0.00    +0.239 C 
ATOM      2  N   GLY A   2      33.275  21.377  16.683  0.00  0.00    -0.296 N 
ATOM      3  H   GLY A   2      34.269  21.676  16.620  0.00  0.00    +0.150 HD
ATOM      4  O   ASP A   1      31.198  21.558  15.801  0.00  0.00    -0.274 OA
ENDROOT
BRANCH   1   5
ATOM      5  CA  ASP A   1      32.927  22.885  14.823  0.00  0.00    +0.156 C 
BRANCH   5   6
ATOM      6  N   ASP A   1      32.147  22.828  13.601  0.00  0.00    -0.238 NA
ATOM      7  H   ASP A   1      31.110  22.797  13.676  0.00  0.00    +0.142 HD
ENDBRANCH   5   6
BRANCH   5   8
ATOM      8  CB  ASP A   1      32.863  24.285  15.431  0.00  0.00    +0.140 C 
BRANCH   8   9
ATOM      9  CG  ASP A   1      33.958  24.526  16.448  0.00  0.00    +0.367 C 
ATOM     10  OD2 ASP A   1      33.814  25.467  17.251  0.00  0.00    -0.246 OA
ATOM     11  OD1 ASP A   1      34.959  23.761  16.451  0.00  0.00    -0.246 OA
ENDBRANCH   8   9
ENDBRANCH   5   8
ENDBRANCH   1   5
BRANCH   2  12
ATOM     12  CA  GLY A   2      32.886  20.422  17.712  0.00  0.00    +0.176 C 
BRANCH  12  13
ATOM     13  C   GLY A   2      32.022  19.305  17.170  0.00  0.00    +0.243 C 
ATOM     14  N   ALA A   3      30.961  18.979  17.902  0.00  0.00    -0.298 N 
ATOM     15  H   ALA A   3      30.757  19.516  18.769  0.00  0.00    +0.150 HD
ATOM     16  O   GLY A   2      32.287  18.768  16.095  0.00  0.00    -0.273 OA
BRANCH  14  17
ATOM     17  CA  ALA A   3      30.076  17.884  17.517  0.00  0.00    +0.137 C 
ATOM     18  CB  ALA A   3      29.305  17.377  18.717  0.00  0.00    +0.030 C 
BRANCH  17  19
ATOM     19  C   ALA A   3      29.116  18.226  16.372  0.00  0.00    +0.227 C 
ATOM     20  O   ALA A   3      28.458  17.321  15.846  0.00  0.00    -0.286 OA
ENDBRANCH  17  19
ENDBRANCH  14  17
ENDBRANCH  12  13
ENDBRANCH   2  12
TORSDOF 8
REMARK  Name = ../refined-set-2016/3g2h/3g2h_pocket.pdb
REMARK  253 active torsions:
REMARK  status: ('A' for Active; 'I' for Inactive)
REMARK    1  A    between atoms: _1  and  _3
REMARK    2  A    between atoms: _3  and  _4
REMARK    3  A    between atoms: _3  and  _6
REMARK    4  A    between atoms: _6  and  _7
REMARK    5  A    between atoms: _12  and  _13
REMARK    6  A    between atoms: _15  and  _17
REMARK    7  A    between atoms: _17  and  _18
REMARK    8  A    between atoms: _17  and  _20
REMARK    9  A    between atoms: _20  and  _21
REMARK   10  A    between atoms: _21  and  _22
REMARK   11  A    between atoms: _25  and  _27
REMARK   12  A    between atoms: _27  and  _28
REMARK   13  A    between atoms: _27  and  _30
REMARK   14  A    between atoms: _30  and  _31
REMARK   15  A    between atoms: _36  and  _38
REMARK   16  A    between atoms: _38  and  _39
REMARK   17  A    between atoms: _41  and  _43
REMARK   18  A    between atoms: _43  and  _44
REMARK   19  A    between atoms: _46  and  _48
REMARK   20  A    between atoms: _48  and  _49
REMARK   21  A    between atoms: _48  and  _51
REMARK   22  A    between atoms: _51  and  _52
REMARK   23  A    between atoms: _55  and  _57
REMARK   24  A    between atoms: _57  and  _58
REMARK   25  A    between atoms: _60  and  _62
REMARK   26  A    between atoms: _62  and  _63
REMARK   27  A    between atoms: _62  and  _65
REMARK   28  A    between atoms: _65  and  _66
REMARK   29  A    between atoms: _66  and  _67
REMARK   30  A    between atoms: _67  and  _68
REMARK   31  A    between atoms: _77  and  _79
REMARK   32  A    between atoms: _79  and  _80
REMARK   33  A    between atoms: _79  and  _82
REMARK   34  A    between atoms: _82  and  _83
REMARK   35  A    between atoms: _86  and  _88
REMARK   36  A    between atoms: _88  and  _89
REMARK   37  A    between atoms: _92  and  _94
REMARK   38  A    between atoms: _94  and  _95
REMARK   39  A    between atoms: _94  and  _97
REMARK   40  A    between atoms: _97  and  _98
REMARK   41  A    between atoms: _104  and  _106
REMARK   42  A    between atoms: _106  and  _107
REMARK   43  A    between atoms: _106  and  _109
REMARK   44  A    between atoms: _109  and  _110
REMARK   45  A    between atoms: _115  and  _117
REMARK   46  A    between atoms: _117  and  _118
REMARK   47  A    between atoms: _117  and  _120
REMARK   48  A    between atoms: _120  and  _121
REMARK   49  A    between atoms: _124  and  _126
REMARK   50  A    between atoms: _126  and  _127
REMARK   51  A    between atoms: _126  and  _129
REMARK   52  A    between atoms: _129  and  _130
REMARK   53  A    between atoms: _135  and  _137
REMARK   54  A    between atoms: _137  and  _138
REMARK   55  A    between atoms: _137  and  _140
REMARK   56  A    between atoms: _140  and  _141
REMARK   57  A    between atoms: _147  and  _149
REMARK   58  A    between atoms: _149  and  _150
REMARK   59  A    between atoms: _149  and  _152
REMARK   60  A    between atoms: _152  and  _153
REMARK   61  A    between atoms: _159  and  _161
REMARK   62  A    between atoms: _161  and  _162
REMARK   63  A    between atoms: _161  and  _164
REMARK   64  A    between atoms: _164  and  _165
REMARK   65  A    between atoms: _165  and  _166
REMARK   66  A    between atoms: _169  and  _171
REMARK   67  A    between atoms: _171  and  _172
REMARK   68  A    between atoms: _171  and  _174
REMARK   69  A    between atoms: _174  and  _175
REMARK   70  A    between atoms: _175  and  _176
REMARK   71  A    between atoms: _176  and  _177
REMARK   72  A    between atoms: _186  and  _188
REMARK   73  A    between atoms: _188  and  _189
REMARK   74  A    between atoms: _188  and  _191
REMARK   75  A    between atoms: _191  and  _192
REMARK   76  A    between atoms: _197  and  _199
REMARK   77  A    between atoms: _199  and  _200
REMARK   78  A    between atoms: _199  and  _202
REMARK   79  A    between atoms: _202  and  _203
REMARK   80  A    between atoms: _206  and  _208
REMARK   81  A    between atoms: _208  and  _209
REMARK   82  A    between atoms: _208  and  _211
REMARK   83  A    between atoms: _211  and  _212
REMARK   84  A    between atoms: _215  and  _217
REMARK   85  A    between atoms: _217  and  _218
REMARK   86  A    between atoms: _217  and  _220
REMARK   87  A    between atoms: _220  and  _221
REMARK   88  A    between atoms: _226  and  _228
REMARK   89  A    between atoms: _228  and  _229
REMARK   90  A    between atoms: _228  and  _231
REMARK   91  A    between atoms: _231  and  _232
REMARK   92  A    between atoms: _237  and  _238
REMARK   93  A    between atoms: _240  and  _242
REMARK   94  A    between atoms: _242  and  _243
REMARK   95  A    between atoms: _242  and  _245
REMARK   96  A    between atoms: _245  and  _246
REMARK   97  A    between atoms: _249  and  _251
REMARK   98  A    between atoms: _251  and  _252
REMARK   99  A    between atoms: _251  and  _254
REMARK  100  A    between atoms: _254  and  _255
REMARK  101  A    between atoms: _260  and  _262
REMARK  102  A    between atoms: _262  and  _263
REMARK  103  A    between atoms: _262  and  _265
REMARK  104  A    between atoms: _265  and  _266
REMARK  105  A    between atoms: _271  and  _273
REMARK  106  A    between atoms: _273  and  _274
REMARK  107  A    between atoms: _273  and  _276
REMARK  108  A    between atoms: _276  and  _277
REMARK  109  A    between atoms: _280  and  _282
REMARK  110  A    between atoms: _282  and  _283
REMARK  111  A    between atoms: _282  and  _285
REMARK  112  A    between atoms: _288  and  _290
REMARK  113  A    between atoms: _290  and  _291
REMARK  114  A    between atoms: _290  and  _293
REMARK  115  A    between atoms: _293  and  _294
REMARK  116  A    between atoms: _297  and  _299
REMARK  117  A    between atoms: _299  and  _300
REMARK  118  A    between atoms: _299  and  _302
REMARK  119  A    between atoms: _302  and  _303
REMARK  120  A    between atoms: _303  and  _304
REMARK  121  A    between atoms: _307  and  _309
REMARK  122  A    between atoms: _309  and  _310
REMARK  123  A    between atoms: _313  and  _315
REMARK  124  A    between atoms: _315  and  _316
REMARK  125  A    between atoms: _315  and  _318
REMARK  126  A    between atoms: _318  and  _319
REMARK  127  A    between atoms: _322  and  _324
REMARK  128  A    between atoms: _324  and  _325
REMARK  129  A    between atoms: _324  and  _327
REMARK  130  A    between atoms: _327  and  _328
REMARK  131  A    between atoms: _328  and  _329
REMARK  132  A    between atoms: _332  and  _334
REMARK  133  A    between atoms: _334  and  _335
REMARK  134  A    between atoms: _334  and  _337
REMARK  135  A    between atoms: _337  and  _338
REMARK  136  A    between atoms: _343  and  _345
REMARK  137  A    between atoms: _345  and  _346
REMARK  138  A    between atoms: _348  and  _350
REMARK  139  A    between atoms: _350  and  _351
REMARK  140  A    between atoms: _350  and  _353
REMARK  141  A    between atoms: _356  and  _358
REMARK  142  A    between atoms: _358  and  _359
REMARK  143  A    between atoms: _362  and  _364
REMARK  144  A    between atoms: _364  and  _365
REMARK  145  A    between atoms: _364  and  _367
REMARK  146  A    between atoms: _367  and  _368
REMARK  147  A    between atoms: _373  and  _375
REMARK  148  A    between atoms: _375  and  _376
REMARK  149  A    between atoms: _375  and  _378
REMARK  150  A    between atoms: _378  and  _379
REMARK  151  A    between atoms: _379  and  _380
REMARK  152  A    between atoms: _380  and  _381
REMARK  153  A    between atoms: _381  and  _382
REMARK  154  A    between atoms: _386  and  _388
REMARK  155  A    between atoms: _388  and  _389
REMARK  156  A    between atoms: _388  and  _391
REMARK  157  A    between atoms: _391  and  _392
REMARK  158  A    between atoms: _395  and  _397
REMARK  159  A    between atoms: _397  and  _398
REMARK  160  A    between atoms: _397  and  _400
REMARK  161  A    between atoms: _400  and  _401
REMARK  162  A    between atoms: _406  and  _408
REMARK  163  A    between atoms: _408  and  _409
REMARK  164  A    between atoms: _411  and  _413
REMARK  165  A    between atoms: _413  and  _414
REMARK  166  A    between atoms: _413  and  _416
REMARK  167  A    between atoms: _416  and  _417
REMARK  168  A    between atoms: _417  and  _418
REMARK  169  A    between atoms: _418  and  _419
REMARK  170  A    between atoms: _419  and  _420
REMARK  171  A    between atoms: _424  and  _426
REMARK  172  A    between atoms: _426  and  _427
REMARK  173  A    between atoms: _426  and  _429
REMARK  174  A    between atoms: _429  and  _430
REMARK  175  A    between atoms: _430  and  _431
REMARK  176  A    between atoms: _431  and  _432
REMARK  177  A    between atoms: _441  and  _443
REMARK  178  A    between atoms: _443  and  _444
REMARK  179  A    between atoms: _443  and  _446
REMARK  180  A    between atoms: _446  and  _447
REMARK  181  A    between atoms: _452  and  _454
REMARK  182  A    between atoms: _454  and  _455
REMARK  183  A    between atoms: _454  and  _457
REMARK  184  A    between atoms: _457  and  _458
REMARK  185  A    between atoms: _463  and  _464
REMARK  186  A    between atoms: _466  and  _468
REMARK  187  A    between atoms: _468  and  _469
REMARK  188  A    between atoms: _468  and  _471
REMARK  189  A    between atoms: _471  and  _472
REMARK  190  A    between atoms: _472  and  _473
REMARK  191  A    between atoms: _473  and  _474
REMARK  192  A    between atoms: _474  and  _475
REMARK  193  A    between atoms: _479  and  _481
REMARK  194  A    between atoms: _481  and  _482
REMARK  195  A    between atoms: _481  and  _484
REMARK  196  A    between atoms: _484  and  _485
REMARK  197  A    between atoms: _487  and  _489
REMARK  198  A    between atoms: _489  and  _490
REMARK  199  A    between atoms: _489  and  _492
REMARK  200  A    between atoms: _492  and  _493
REMARK  201  A    between atoms: _496  and  _498
REMARK  202  A    between atoms: _498  and  _499
REMARK  203  A    between atoms: _498  and  _501
REMARK  204  A    between atoms: _501  and  _502
REMARK  205  A    between atoms: _502  and  _503
REMARK  206  A    between atoms: _506  and  _508
REMARK  207  A    between atoms: _508  and  _509
REMARK  208  A    between atoms: _512  and  _514
REMARK  209  A    between atoms: _514  and  _515
REMARK  210  A    between atoms: _514  and  _517
REMARK  211  A    between atoms: _517  and  _518
REMARK  212  A    between atoms: _520  and  _522
REMARK  213  A    between atoms: _522  and  _523
REMARK  214  A    between atoms: _525  and  _527
REMARK  215  A    between atoms: _527  and  _528
REMARK  216  A    between atoms: _527  and  _530
REMARK  217  A    between atoms: _530  and  _531
REMARK  218  A    between atoms: _534  and  _536
REMARK  219  A    between atoms: _536  and  _537
REMARK  220  A    between atoms: _539  and  _541
REMARK  221  A    between atoms: _541  and  _542
REMARK  222  A    between atoms: _541  and  _544
REMARK  223  A    between atoms: _544  and  _545
REMARK  224  A    between atoms: _550  and  _552
REMARK  225  A    between atoms: _552  and  _553
REMARK  226  A    between atoms: _552  and  _555
REMARK  227  A    between atoms: _555  and  _556
REMARK  228  A    between atoms: _556  and  _557
REMARK  229  A    between atoms: _564  and  _565
REMARK  230  A    between atoms: _565  and  _581
REMARK  231  A    between atoms: _566  and  _568
REMARK  232  A    between atoms: _568  and  _569
REMARK  233  A    between atoms: _569  and  _570
REMARK  234  A    between atoms: _574  and  _576
REMARK  235  A    between atoms: _576  and  _577
REMARK  236  A    between atoms: _576  and  _584
REMARK  237  A    between atoms: _577  and  _578
REMARK  238  A    between atoms: _578  and  _579
REMARK  239  A    between atoms: _579  and  _580
REMARK  240  A    between atoms: _580  and  _581
REMARK  241  A    between atoms: _586  and  _588
REMARK  242  A    between atoms: _588  and  _589
REMARK  243  A    between atoms: _588  and  _591
REMARK  244  A    between atoms: _591  and  _592
REMARK  245  A    between atoms: _595  and  _597
REMARK  246  A    between atoms: _597  and  _598
REMARK  247  A    between atoms: _600  and  _602
REMARK  248  A    between atoms: _602  and  _603
REMARK  249  A    between atoms: _606  and  _608
REMARK  250  A    between atoms: _608  and  _609
REMARK  251  A    between atoms: _608  and  _611
REMARK  252  A    between atoms: _611  and  _612
REMARK  253  A    between atoms: _617  and  _618
REMARK                            x       y       z     vdW  Elec       q    Type
REMARK                         _______ _______ _______ _____ _____    ______ ____
ROOT
ATOM      1  CG  TYR A   1      34.032   7.505  28.670  0.00  0.00    -0.020 A 
ATOM      2  CD2 TYR A   1      35.205   8.093  29.153  0.00  0.00    -0.001 A 
ATOM      3  CE2 TYR A   1      35.464   9.443  28.941  0.00  0.00    +0.036 A 
ATOM      4  CZ  TYR A   1      34.551  10.210  28.251  0.00  0.00    +0.134 A 
ATOM      5  CE1 TYR A   1      33.376   9.652  27.772  0.00  0.00    +0.036 A 
ATOM      6  CD1 TYR A   1      33.126   8.304  27.985  0.00  0.00    -0.001 A 
ENDROOT
BRANCH   4   7
ATOM      7  OH  TYR A   1      34.791  11.542  28.026  0.00  0.00    -0.506 OA
ATOM      8  HH  TYR A   1      34.812  11.712  27.051  0.00  0.00    +0.292 HD
ENDBRANCH   4   7
BRANCH   1   9
ATOM      9  CB  TYR A   1      33.733   6.052  28.921  0.00  0.00    +0.051 C 
BRANCH   9  10
ATOM     10  CA  TYR A   1      34.300   5.071  27.903  0.00  0.00    +0.137 C 
BRANCH  10  11
ATOM     11  N   TYR A   1      33.400   4.924  26.748  0.00  0.00    -0.239 NA
ATOM     12  H   TYR A   1      32.564   5.538  26.671  0.00  0.00    +0.142 HD
ENDBRANCH  10  11
BRANCH  10  13
ATOM     13  C   TYR A   1      34.484   3.740  28.618  0.00  0.00    +0.224 C 
ATOM     14  O   TYR A   1      35.602   3.354  28.938  0.00  0.00    -0.287 OA
ENDBRANCH  10  13
ENDBRANCH   9  10
ENDBRANCH   1   9
TORSDOF 5
REMARK  Name = ../refined-set-2016/3g2h/3g2h_pocket.pdb
REMARK  253 active torsions:
REMARK  status: ('A' for Active; 'I' for Inactive)
REMARK    1  A    between atoms: _1  and  _3
REMARK    2  A    between atoms: _3  and  _4
REMARK    3  A    between atoms: _3  and  _6
REMARK    4  A    between atoms: _6  and  _7
REMARK    5  A    between atoms: _12  and  _13
REMARK    6  A    between atoms: _15  and  _17
REMARK    7  A    between atoms: _17  and  _18
REMARK    8  A    between atoms: _17  and  _20
REMARK    9  A    between atoms: _20  and  _21
REMARK   10  A    between atoms: _21  and  _22
REMARK   11  A    between atoms: _25  and  _27
REMARK   12  A    between atoms: _27  and  _28
REMARK   13  A    between atoms: _27  and  _30
REMARK   14  A    between atoms: _30  and  _31
REMARK   15  A    between atoms: _36  and  _38
REMARK   16  A    between atoms: _38  and  _39
REMARK   17  A    between atoms: _41  and  _43
REMARK   18  A    between atoms: _43  and  _44
REMARK   19  A    between atoms: _46  and  _48
REMARK   20  A    between atoms: _48  and  _49
REMARK   21  A    between atoms: _48  and  _51
REMARK   22  A    between atoms: _51  and  _52
REMARK   23  A    between atoms: _55  and  _57
REMARK   24  A    between atoms: _57  and  _58
REMARK   25  A    between atoms: _60  and  _62
REMARK   26  A    between atoms: _62  and  _63
REMARK   27  A    between atoms: _62  and  _65
REMARK   28  A    between atoms: _65  and  _66
REMARK   29  A    between atoms: _66  and  _67
REMARK   30  A    between atoms: _67  and  _68
REMARK   31  A    between atoms: _77  and  _79
REMARK   32  A    between atoms: _79  and  _80
REMARK   33  A    between atoms: _79  and  _82
REMARK   34  A    between atoms: _82  and  _83
REMARK   35  A    between atoms: _86  and  _88
REMARK   36  A    between atoms: _88  and  _89
REMARK   37  A    between atoms: _92  and  _94
REMARK   38  A    between atoms: _94  and  _95
REMARK   39  A    between atoms: _94  and  _97
REMARK   40  A    between atoms: _97  and  _98
REMARK   41  A    between atoms: _104  and  _106
REMARK   42  A    between atoms: _106  and  _107
REMARK   43  A    between atoms: _106  and  _109
REMARK   44  A    between atoms: _109  and  _110
REMARK   45  A    between atoms: _115  and  _117
REMARK   46  A    between atoms: _117  and  _118
REMARK   47  A    between atoms: _117  and  _120
REMARK   48  A    between atoms: _120  and  _121
REMARK   49  A    between atoms: _124  and  _126
REMARK   50  A    between atoms: _126  and  _127
REMARK   51  A    between atoms: _126  and  _129
REMARK   52  A    between atoms: _129  and  _130
REMARK   53  A    between atoms: _135  and  _137
REMARK   54  A    between atoms: _137  and  _138
REMARK   55  A    between atoms: _137  and  _140
REMARK   56  A    between atoms: _140  and  _141
REMARK   57  A    between atoms: _147  and  _149
REMARK   58  A    between atoms: _149  and  _150
REMARK   59  A    between atoms: _149  and  _152
REMARK   60  A    between atoms: _152  and  _153
REMARK   61  A    between atoms: _159  and  _161
REMARK   62  A    between atoms: _161  and  _162
REMARK   63  A    between atoms: _161  and  _164
REMARK   64  A    between atoms: _164  and  _165
REMARK   65  A    between atoms: _165  and  _166
REMARK   66  A    between atoms: _169  and  _171
REMARK   67  A    between atoms: _171  and  _172
REMARK   68  A    between atoms: _171  and  _174
REMARK   69  A    between atoms: _174  and  _175
REMARK   70  A    between atoms: _175  and  _176
REMARK   71  A    between atoms: _176  and  _177
REMARK   72  A    between atoms: _186  and  _188
REMARK   73  A    between atoms: _188  and  _189
REMARK   74  A    between atoms: _188  and  _191
REMARK   75  A    between atoms: _191  and  _192
REMARK   76  A    between atoms: _197  and  _199
REMARK   77  A    between atoms: _199  and  _200
REMARK   78  A    between atoms: _199  and  _202
REMARK   79  A    between atoms: _202  and  _203
REMARK   80  A    between atoms: _206  and  _208
REMARK   81  A    between atoms: _208  and  _209
REMARK   82  A    between atoms: _208  and  _211
REMARK   83  A    between atoms: _211  and  _212
REMARK   84  A    between atoms: _215  and  _217
REMARK   85  A    between atoms: _217  and  _218
REMARK   86  A    between atoms: _217  and  _220
REMARK   87  A    between atoms: _220  and  _221
REMARK   88  A    between atoms: _226  and  _228
REMARK   89  A    between atoms: _228  and  _229
REMARK   90  A    between atoms: _228  and  _231
REMARK   91  A    between atoms: _231  and  _232
REMARK   92  A    between atoms: _237  and  _238
REMARK   93  A    between atoms: _240  and  _242
REMARK   94  A    between atoms: _242  and  _243
REMARK   95  A    between atoms: _242  and  _245
REMARK   96  A    between atoms: _245  and  _246
REMARK   97  A    between atoms: _249  and  _251
REMARK   98  A    between atoms: _251  and  _252
REMARK   99  A    between atoms: _251  and  _254
REMARK  100  A    between atoms: _254  and  _255
REMARK  101  A    between atoms: _260  and  _262
REMARK  102  A    between atoms: _262  and  _263
REMARK  103  A    between atoms: _262  and  _265
REMARK  104  A    between atoms: _265  and  _266
REMARK  105  A    between atoms: _271  and  _273
REMARK  106  A    between atoms: _273  and  _274
REMARK  107  A    between atoms: _273  and  _276
REMARK  108  A    between atoms: _276  and  _277
REMARK  109  A    between atoms: _280  and  _282
REMARK  110  A    between atoms: _282  and  _283
REMARK  111  A    between atoms: _282  and  _285
REMARK  112  A    between atoms: _288  and  _290
REMARK  113  A    between atoms: _290  and  _291
REMARK  114  A    between atoms: _290  and  _293
REMARK  115  A    between atoms: _293  and  _294
REMARK  116  A    between atoms: _297  and  _299
REMARK  117  A    between atoms: _299  and  _300
REMARK  118  A    between atoms: _299  and  _302
REMARK  119  A    between atoms: _302  and  _303
REMARK  120  A    between atoms: _303  and  _304
REMARK  121  A    between atoms: _307  and  _309
REMARK  122  A    between atoms: _309  and  _310
REMARK  123  A    between atoms: _313  and  _315
REMARK  124  A    between atoms: _315  and  _316
REMARK  125  A    between atoms: _315  and  _318
REMARK  126  A    between atoms: _318  and  _319
REMARK  127  A    between atoms: _322  and  _324
REMARK  128  A    between atoms: _324  and  _325
REMARK  129  A    between atoms: _324  and  _327
REMARK  130  A    between atoms: _327  and  _328
REMARK  131  A    between atoms: _328  and  _329
REMARK  132  A    between atoms: _332  and  _334
REMARK  133  A    between atoms: _334  and  _335
REMARK  134  A    between atoms: _334  and  _337
REMARK  135  A    between atoms: _337  and  _338
REMARK  136  A    between atoms: _343  and  _345
REMARK  137  A    between atoms: _345  and  _346
REMARK  138  A    between atoms: _348  and  _350
REMARK  139  A    between atoms: _350  and  _351
REMARK  140  A    between atoms: _350  and  _353
REMARK  141  A    between atoms: _356  and  _358
REMARK  142  A    between atoms: _358  and  _359
REMARK  143  A    between atoms: _362  and  _364
REMARK  144  A    between atoms: _364  and  _365
REMARK  145  A    between atoms: _364  and  _367
REMARK  146  A    between atoms: _367  and  _368
REMARK  147  A    between atoms: _373  and  _375
REMARK  148  A    between atoms: _375  and  _376
REMARK  149  A    between atoms: _375  and  _378
REMARK  150  A    between atoms: _378  and  _379
REMARK  151  A    between atoms: _379  and  _380
REMARK  152  A    between atoms: _380  and  _381
REMARK  153  A    between atoms: _381  and  _382
REMARK  154  A    between atoms: _386  and  _388
REMARK  155  A    between atoms: _388  and  _389
REMARK  156  A    between atoms: _388  and  _391
REMARK  157  A    between atoms: _391  and  _392
REMARK  158  A    between atoms: _395  and  _397
REMARK  159  A    between atoms: _397  and  _398
REMARK  160  A    between atoms: _397  and  _400
REMARK  161  A    between atoms: _400  and  _401
REMARK  162  A    between atoms: _406  and  _408
REMARK  163  A    between atoms: _408  and  _409
REMARK  164  A    between atoms: _411  and  _413
REMARK  165  A    between atoms: _413  and  _414
REMARK  166  A    between atoms: _413  and  _416
REMARK  167  A    between atoms: _416  and  _417
REMARK  168  A    between atoms: _417  and  _418
REMARK  169  A    between atoms: _418  and  _419
REMARK  170  A    between atoms: _419  and  _420
REMARK  171  A    between atoms: _424  and  _426
REMARK  172  A    between atoms: _426  and  _427
REMARK  173  A    between atoms: _426  and  _429
REMARK  174  A    between atoms: _429  and  _430
REMARK  175  A    between atoms: _430  and  _431
REMARK  176  A    between atoms: _431  and  _432
REMARK  177  A    between atoms: _441  and  _443
REMARK  178  A    between atoms: _443  and  _444
REMARK  179  A    between atoms: _443  and  _446
REMARK  180  A    between atoms: _446  and  _447
REMARK  181  A    between atoms: _452  and  _454
REMARK  182  A    between atoms: _454  and  _455
REMARK  183  A    between atoms: _454  and  _457
REMARK  184  A    between atoms: _457  and  _458
REMARK  185  A    between atoms: _463  and  _464
REMARK  186  A    between atoms: _466  and  _468
REMARK  187  A    between atoms: _468  and  _469
REMARK  188  A    between atoms: _468  and  _471
REMARK  189  A    between atoms: _471  and  _472
REMARK  190  A    between atoms: _472  and  _473
REMARK  191  A    between atoms: _473  and  _474
REMARK  192  A    between atoms: _474  and  _475
REMARK  193  A    between atoms: _479  and  _481
REMARK  194  A    between atoms: _481  and  _482
REMARK  195  A    between atoms: _481  and  _484
REMARK  196  A    between atoms: _484  and  _485
REMARK  197  A    between atoms: _487  and  _489
REMARK  198  A    between atoms: _489  and  _490
REMARK  199  A    between atoms: _489  and  _492
REMARK  200  A    between atoms: _492  and  _493
REMARK  201  A    between atoms: _496  and  _498
REMARK  202  A    between atoms: _498  and  _499
REMARK  203  A    between atoms: _498  and  _501
REMARK  204  A    between atoms: _501  and  _502
REMARK  205  A    between atoms: _502  and  _503
REMARK  206  A    between atoms: _506  and  _508
REMARK  207  A    between atoms: _508  and  _509
REMARK  208  A    between atoms: _512  and  _514
REMARK  209  A    between atoms: _514  and  _515
REMARK  210  A    between atoms: _514  and  _517
REMARK  211  A    between atoms: _517  and  _518
REMARK  212  A    between atoms: _520  and  _522
REMARK  213  A    between atoms: _522  and  _523
REMARK  214  A    between atoms: _525  and  _527
REMARK  215  A    between atoms: _527  and  _528
REMARK  216  A    between atoms: _527  and  _530
REMARK  217  A    between atoms: _530  and  _531
REMARK  218  A    between atoms: _534  and  _536
REMARK  219  A    between atoms: _536  and  _537
REMARK  220  A    between atoms: _539  and  _541
REMARK  221  A    between atoms: _541  and  _542
REMARK  222  A    between atoms: _541  and  _544
REMARK  223  A    between atoms: _544  and  _545
REMARK  224  A    between atoms: _550  and  _552
REMARK  225  A    between atoms: _552  and  _553
REMARK  226  A    between atoms: _552  and  _555
REMARK  227  A    between atoms: _555  and  _556
REMARK  228  A    between atoms: _556  and  _557
REMARK  229  A    between atoms: _564  and  _565
REMARK  230  A    between atoms: _565  and  _581
REMARK  231  A    between atoms: _566  and  _568
REMARK  232  A    between atoms: _568  and  _569
REMARK  233  A    between atoms: _569  and  _570
REMARK  234  A    between atoms: _574  and  _576
REMARK  235  A    between atoms: _576  and  _577
REMARK  236  A    between atoms: _576  and  _584
REMARK  237  A    between atoms: _577  and  _578
REMARK  238  A    between atoms: _578  and  _579
REMARK  239  A    between atoms: _579  and  _580
REMARK  240  A    between atoms: _580  and  _581
REMARK  241  A    between atoms: _586  and  _588
REMARK  242  A    between atoms: _588  and  _589
REMARK  243  A    between atoms: _588  and  _591
REMARK  244  A    between atoms: _591  and  _592
REMARK  245  A    between atoms: _595  and  _597
REMARK  246  A    between atoms: _597  and  _598
REMARK  247  A    between atoms: _600  and  _602
REMARK  248  A    between atoms: _602  and  _603
REMARK  249  A    between atoms: _606  and  _608
REMARK  250  A    between atoms: _608  and  _609
REMARK  251  A    between atoms: _608  and  _611
REMARK  252  A    between atoms: _611  and  _612
REMARK  253  A    between atoms: _617  and  _618
REMARK                            x       y       z     vdW  Elec       q    Type
REMARK                         _______ _______ _______ _____ _____    ______ ____
ROOT
ATOM      1  O   HOH     1      30.918  26.954  30.951  0.00  0.00    +0.000 OA
ENDROOT
TORSDOF 0
REMARK  Name = ../refined-set-2016/3g2h/3g2h_pocket.pdb
REMARK  253 active torsions:
REMARK  status: ('A' for Active; 'I' for Inactive)
REMARK    1  A    between atoms: _1  and  _3
REMARK    2  A    between atoms: _3  and  _4
REMARK    3  A    between atoms: _3  and  _6
REMARK    4  A    between atoms: _6  and  _7
REMARK    5  A    between atoms: _12  and  _13
REMARK    6  A    between atoms: _15  and  _17
REMARK    7  A    between atoms: _17  and  _18
REMARK    8  A    between atoms: _17  and  _20
REMARK    9  A    between atoms: _20  and  _21
REMARK   10  A    between atoms: _21  and  _22
REMARK   11  A    between atoms: _25  and  _27
REMARK   12  A    between atoms: _27  and  _28
REMARK   13  A    between atoms: _27  and  _30
REMARK   14  A    between atoms: _30  and  _31
REMARK   15  A    between atoms: _36  and  _38
REMARK   16  A    between atoms: _38  and  _39
REMARK   17  A    between atoms: _41  and  _43
REMARK   18  A    between atoms: _43  and  _44
REMARK   19  A    between atoms: _46  and  _48
REMARK   20  A    between atoms: _48  and  _49
REMARK   21  A    between atoms: _48  and  _51
REMARK   22  A    between atoms: _51  and  _52
REMARK   23  A    between atoms: _55  and  _57
REMARK   24  A    between atoms: _57  and  _58
REMARK   25  A    between atoms: _60  and  _62
REMARK   26  A    between atoms: _62  and  _63
REMARK   27  A    between atoms: _62  and  _65
REMARK   28  A    between atoms: _65  and  _66
REMARK   29  A    between atoms: _66  and  _67
REMARK   30  A    between atoms: _67  and  _68
REMARK   31  A    between atoms: _77  and  _79
REMARK   32  A    between atoms: _79  and  _80
REMARK   33  A    between atoms: _79  and  _82
REMARK   34  A    between atoms: _82  and  _83
REMARK   35  A    between atoms: _86  and  _88
REMARK   36  A    between atoms: _88  and  _89
REMARK   37  A    between atoms: _92  and  _94
REMARK   38  A    between atoms: _94  and  _95
REMARK   39  A    between atoms: _94  and  _97
REMARK   40  A    between atoms: _97  and  _98
REMARK   41  A    between atoms: _104  and  _106
REMARK   42  A    between atoms: _106  and  _107
REMARK   43  A    between atoms: _106  and  _109
REMARK   44  A    between atoms: _109  and  _110
REMARK   45  A    between atoms: _115  and  _117
REMARK   46  A    between atoms: _117  and  _118
REMARK   47  A    between atoms: _117  and  _120
REMARK   48  A    between atoms: _120  and  _121
REMARK   49  A    between atoms: _124  and  _126
REMARK   50  A    between atoms: _126  and  _127
REMARK   51  A    between atoms: _126  and  _129
REMARK   52  A    between atoms: _129  and  _130
REMARK   53  A    between atoms: _135  and  _137
REMARK   54  A    between atoms: _137  and  _138
REMARK   55  A    between atoms: _137  and  _140
REMARK   56  A    between atoms: _140  and  _141
REMARK   57  A    between atoms: _147  and  _149
REMARK   58  A    between atoms: _149  and  _150
REMARK   59  A    between atoms: _149  and  _152
REMARK   60  A    between atoms: _152  and  _153
REMARK   61  A    between atoms: _159  and  _161
REMARK   62  A    between atoms: _161  and  _162
REMARK   63  A    between atoms: _161  and  _164
REMARK   64  A    between atoms: _164  and  _165
REMARK   65  A    between atoms: _165  and  _166
REMARK   66  A    between atoms: _169  and  _171
REMARK   67  A    between atoms: _171  and  _172
REMARK   68  A    between atoms: _171  and  _174
REMARK   69  A    between atoms: _174  and  _175
REMARK   70  A    between atoms: _175  and  _176
REMARK   71  A    between atoms: _176  and  _177
REMARK   72  A    between atoms: _186  and  _188
REMARK   73  A    between atoms: _188  and  _189
REMARK   74  A    between atoms: _188  and  _191
REMARK   75  A    between atoms: _191  and  _192
REMARK   76  A    between atoms: _197  and  _199
REMARK   77  A    between atoms: _199  and  _200
REMARK   78  A    between atoms: _199  and  _202
REMARK   79  A    between atoms: _202  and  _203
REMARK   80  A    between atoms: _206  and  _208
REMARK   81  A    between atoms: _208  and  _209
REMARK   82  A    between atoms: _208  and  _211
REMARK   83  A    between atoms: _211  and  _212
REMARK   84  A    between atoms: _215  and  _217
REMARK   85  A    between atoms: _217  and  _218
REMARK   86  A    between atoms: _217  and  _220
REMARK   87  A    between atoms: _220  and  _221
REMARK   88  A    between atoms: _226  and  _228
REMARK   89  A    between atoms: _228  and  _229
REMARK   90  A    between atoms: _228  and  _231
REMARK   91  A    between atoms: _231  and  _232
REMARK   92  A    between atoms: _237  and  _238
REMARK   93  A    between atoms: _240  and  _242
REMARK   94  A    between atoms: _242  and  _243
REMARK   95  A    between atoms: _242  and  _245
REMARK   96  A    between atoms: _245  and  _246
REMARK   97  A    between atoms: _249  and  _251
REMARK   98  A    between atoms: _251  and  _252
REMARK   99  A    between atoms: _251  and  _254
REMARK  100  A    between atoms: _254  and  _255
REMARK  101  A    between atoms: _260  and  _262
REMARK  102  A    between atoms: _262  and  _263
REMARK  103  A    between atoms: _262  and  _265
REMARK  104  A    between atoms: _265  and  _266
REMARK  105  A    between atoms: _271  and  _273
REMARK  106  A    between atoms: _273  and  _274
REMARK  107  A    between atoms: _273  and  _276
REMARK  108  A    between atoms: _276  and  _277
REMARK  109  A    between atoms: _280  and  _282
REMARK  110  A    between atoms: _282  and  _283
REMARK  111  A    between atoms: _282  and  _285
REMARK  112  A    between atoms: _288  and  _290
REMARK  113  A    between atoms: _290  and  _291
REMARK  114  A    between atoms: _290  and  _293
REMARK  115  A    between atoms: _293  and  _294
REMARK  116  A    between atoms: _297  and  _299
REMARK  117  A    between atoms: _299  and  _300
REMARK  118  A    between atoms: _299  and  _302
REMARK  119  A    between atoms: _302  and  _303
REMARK  120  A    between atoms: _303  and  _304
REMARK  121  A    between atoms: _307  and  _309
REMARK  122  A    between atoms: _309  and  _310
REMARK  123  A    between atoms: _313  and  _315
REMARK  124  A    between atoms: _315  and  _316
REMARK  125  A    between atoms: _315  and  _318
REMARK  126  A    between atoms: _318  and  _319
REMARK  127  A    between atoms: _322  and  _324
REMARK  128  A    between atoms: _324  and  _325
REMARK  129  A    between atoms: _324  and  _327
REMARK  130  A    between atoms: _327  and  _328
REMARK  131  A    between atoms: _328  and  _329
REMARK  132  A    between atoms: _332  and  _334
REMARK  133  A    between atoms: _334  and  _335
REMARK  134  A    between atoms: _334  and  _337
REMARK  135  A    between atoms: _337  and  _338
REMARK  136  A    between atoms: _343  and  _345
REMARK  137  A    between atoms: _345  and  _346
REMARK  138  A    between atoms: _348  and  _350
REMARK  139  A    between atoms: _350  and  _351
REMARK  140  A    between atoms: _350  and  _353
REMARK  141  A    between atoms: _356  and  _358
REMARK  142  A    between atoms: _358  and  _359
REMARK  143  A    between atoms: _362  and  _364
REMARK  144  A    between atoms: _364  and  _365
REMARK  145  A    between atoms: _364  and  _367
REMARK  146  A    between atoms: _367  and  _368
REMARK  147  A    between atoms: _373  and  _375
REMARK  148  A    between atoms: _375  and  _376
REMARK  149  A    between atoms: _375  and  _378
REMARK  150  A    between atoms: _378  and  _379
REMARK  151  A    between atoms: _379  and  _380
REMARK  152  A    between atoms: _380  and  _381
REMARK  153  A    between atoms: _381  and  _382
REMARK  154  A    between atoms: _386  and  _388
REMARK  155  A    between atoms: _388  and  _389
REMARK  156  A    between atoms: _388  and  _391
REMARK  157  A    between atoms: _391  and  _392
REMARK  158  A    between atoms: _395  and  _397
REMARK  159  A    between atoms: _397  and  _398
REMARK  160  A    between atoms: _397  and  _400
REMARK  161  A    between atoms: _400  and  _401
REMARK  162  A    between atoms: _406  and  _408
REMARK  163  A    between atoms: _408  and  _409
REMARK  164  A    between atoms: _411  and  _413
REMARK  165  A    between atoms: _413  and  _414
REMARK  166  A    between atoms: _413  and  _416
REMARK  167  A    between atoms: _416  and  _417
REMARK  168  A    between atoms: _417  and  _418
REMARK  169  A    between atoms: _418  and  _419
REMARK  170  A    between atoms: _419  and  _420
REMARK  171  A    between atoms: _424  and  _426
REMARK  172  A    between atoms: _426  and  _427
REMARK  173  A    between atoms: _426  and  _429
REMARK  174  A    between atoms: _429  and  _430
REMARK  175  A    between atoms: _430  and  _431
REMARK  176  A    between atoms: _431  and  _432
REMARK  177  A    between atoms: _441  and  _443
REMARK  178  A    between atoms: _443  and  _444
REMARK  179  A    between atoms: _443  and  _446
REMARK  180  A    between atoms: _446  and  _447
REMARK  181  A    between atoms: _452  and  _454
REMARK  182  A    between atoms: _454  and  _455
REMARK  183  A    between atoms: _454  and  _457
REMARK  184  A    between atoms: _457  and  _458
REMARK  185  A    between atoms: _463  and  _464
REMARK  186  A    between atoms: _466  and  _468
REMARK  187  A    between atoms: _468  and  _469
REMARK  188  A    between atoms: _468  and  _471
REMARK  189  A    between atoms: _471  and  _472
REMARK  190  A    between atoms: _472  and  _473
REMARK  191  A    between atoms: _473  and  _474
REMARK  192  A    between atoms: _474  and  _475
REMARK  193  A    between atoms: _479  and  _481
REMARK  194  A    between atoms: _481  and  _482
REMARK  195  A    between atoms: _481  and  _484
REMARK  196  A    between atoms: _484  and  _485
REMARK  197  A    between atoms: _487  and  _489
REMARK  198  A    between atoms: _489  and  _490
REMARK  199  A    between atoms: _489  and  _492
REMARK  200  A    between atoms: _492  and  _493
REMARK  201  A    between atoms: _496  and  _498
REMARK  202  A    between atoms: _498  and  _499
REMARK  203  A    between atoms: _498  and  _501
REMARK  204  A    between atoms: _501  and  _502
REMARK  205  A    between atoms: _502  and  _503
REMARK  206  A    between atoms: _506  and  _508
REMARK  207  A    between atoms: _508  and  _509
REMARK  208  A    between atoms: _512  and  _514
REMARK  209  A    between atoms: _514  and  _515
REMARK  210  A    between atoms: _514  and  _517
REMARK  211  A    between atoms: _517  and  _518
REMARK  212  A    between atoms: _520  and  _522
REMARK  213  A    between atoms: _522  and  _523
REMARK  214  A    between atoms: _525  and  _527
REMARK  215  A    between atoms: _527  and  _528
REMARK  216  A    between atoms: _527  and  _530
REMARK  217  A    between atoms: _530  and  _531
REMARK  218  A    between atoms: _534  and  _536
REMARK  219  A    between atoms: _536  and  _537
REMARK  220  A    between atoms: _539  and  _541
REMARK  221  A    between atoms: _541  and  _542
REMARK  222  A    between atoms: _541  and  _544
REMARK  223  A    between atoms: _544  and  _545
REMARK  224  A    between atoms: _550  and  _552
REMARK  225  A    between atoms: _552  and  _553
REMARK  226  A    between atoms: _552  and  _555
REMARK  227  A    between atoms: _555  and  _556
REMARK  228  A    between atoms: _556  and  _557
REMARK  229  A    between atoms: _564  and  _565
REMARK  230  A    between atoms: _565  and  _581
REMARK  231  A    between atoms: _566  and  _568
REMARK  232  A    between atoms: _568  and  _569
REMARK  233  A    between atoms: _569  and  _570
REMARK  234  A    between atoms: _574  and  _576
REMARK  235  A    between atoms: _576  and  _577
REMARK  236  A    between atoms: _576  and  _584
REMARK  237  A    between atoms: _577  and  _578
REMARK  238  A    between atoms: _578  and  _579
REMARK  239  A    between atoms: _579  and  _580
REMARK  240  A    between atoms: _580  and  _581
REMARK  241  A    between atoms: _586  and  _588
REMARK  242  A    between atoms: _588  and  _589
REMARK  243  A    between atoms: _588  and  _591
REMARK  244  A    between atoms: _591  and  _592
REMARK  245  A    between atoms: _595  and  _597
REMARK  246  A    between atoms: _597  and  _598
REMARK  247  A    between atoms: _600  and  _602
REMARK  248  A    between atoms: _602  and  _603
REMARK  249  A    between atoms: _606  and  _608
REMARK  250  A    between atoms: _608  and  _609
REMARK  251  A    between atoms: _608  and  _611
REMARK  252  A    between atoms: _611  and  _612
REMARK  253  A    between atoms: _617  and  _618
REMARK                            x       y       z     vdW  Elec       q    Type
REMARK                         _______ _______ _______ _____ _____    ______ ____
ROOT
ATOM      1  O   HOH     1      33.129  12.616  26.117  0.00  0.00    +0.000 OA
ENDROOT
TORSDOF 0
REMARK  Name = ../refined-set-2016/3g2h/3g2h_pocket.pdb
REMARK  253 active torsions:
REMARK  status: ('A' for Active; 'I' for Inactive)
REMARK    1  A    between atoms: _1  and  _3
REMARK    2  A    between atoms: _3  and  _4
REMARK    3  A    between atoms: _3  and  _6
REMARK    4  A    between atoms: _6  and  _7
REMARK    5  A    between atoms: _12  and  _13
REMARK    6  A    between atoms: _15  and  _17
REMARK    7  A    between atoms: _17  and  _18
REMARK    8  A    between atoms: _17  and  _20
REMARK    9  A    between atoms: _20  and  _21
REMARK   10  A    between atoms: _21  and  _22
REMARK   11  A    between atoms: _25  and  _27
REMARK   12  A    between atoms: _27  and  _28
REMARK   13  A    between atoms: _27  and  _30
REMARK   14  A    between atoms: _30  and  _31
REMARK   15  A    between atoms: _36  and  _38
REMARK   16  A    between atoms: _38  and  _39
REMARK   17  A    between atoms: _41  and  _43
REMARK   18  A    between atoms: _43  and  _44
REMARK   19  A    between atoms: _46  and  _48
REMARK   20  A    between atoms: _48  and  _49
REMARK   21  A    between atoms: _48  and  _51
REMARK   22  A    between atoms: _51  and  _52
REMARK   23  A    between atoms: _55  and  _57
REMARK   24  A    between atoms: _57  and  _58
REMARK   25  A    between atoms: _60  and  _62
REMARK   26  A    between atoms: _62  and  _63
REMARK   27  A    between atoms: _62  and  _65
REMARK   28  A    between atoms: _65  and  _66
REMARK   29  A    between atoms: _66  and  _67
REMARK   30  A    between atoms: _67  and  _68
REMARK   31  A    between atoms: _77  and  _79
REMARK   32  A    between atoms: _79  and  _80
REMARK   33  A    between atoms: _79  and  _82
REMARK   34  A    between atoms: _82  and  _83
REMARK   35  A    between atoms: _86  and  _88
REMARK   36  A    between atoms: _88  and  _89
REMARK   37  A    between atoms: _92  and  _94
REMARK   38  A    between atoms: _94  and  _95
REMARK   39  A    between atoms: _94  and  _97
REMARK   40  A    between atoms: _97  and  _98
REMARK   41  A    between atoms: _104  and  _106
REMARK   42  A    between atoms: _106  and  _107
REMARK   43  A    between atoms: _106  and  _109
REMARK   44  A    between atoms: _109  and  _110
REMARK   45  A    between atoms: _115  and  _117
REMARK   46  A    between atoms: _117  and  _118
REMARK   47  A    between atoms: _117  and  _120
REMARK   48  A    between atoms: _120  and  _121
REMARK   49  A    between atoms: _124  and  _126
REMARK   50  A    between atoms: _126  and  _127
REMARK   51  A    between atoms: _126  and  _129
REMARK   52  A    between atoms: _129  and  _130
REMARK   53  A    between atoms: _135  and  _137
REMARK   54  A    between atoms: _137  and  _138
REMARK   55  A    between atoms: _137  and  _140
REMARK   56  A    between atoms: _140  and  _141
REMARK   57  A    between atoms: _147  and  _149
REMARK   58  A    between atoms: _149  and  _150
REMARK   59  A    between atoms: _149  and  _152
REMARK   60  A    between atoms: _152  and  _153
REMARK   61  A    between atoms: _159  and  _161
REMARK   62  A    between atoms: _161  and  _162
REMARK   63  A    between atoms: _161  and  _164
REMARK   64  A    between atoms: _164  and  _165
REMARK   65  A    between atoms: _165  and  _166
REMARK   66  A    between atoms: _169  and  _171
REMARK   67  A    between atoms: _171  and  _172
REMARK   68  A    between atoms: _171  and  _174
REMARK   69  A    between atoms: _174  and  _175
REMARK   70  A    between atoms: _175  and  _176
REMARK   71  A    between atoms: _176  and  _177
REMARK   72  A    between atoms: _186  and  _188
REMARK   73  A    between atoms: _188  and  _189
REMARK   74  A    between atoms: _188  and  _191
REMARK   75  A    between atoms: _191  and  _192
REMARK   76  A    between atoms: _197  and  _199
REMARK   77  A    between atoms: _199  and  _200
REMARK   78  A    between atoms: _199  and  _202
REMARK   79  A    between atoms: _202  and  _203
REMARK   80  A    between atoms: _206  and  _208
REMARK   81  A    between atoms: _208  and  _209
REMARK   82  A    between atoms: _208  and  _211
REMARK   83  A    between atoms: _211  and  _212
REMARK   84  A    between atoms: _215  and  _217
REMARK   85  A    between atoms: _217  and  _218
REMARK   86  A    between atoms: _217  and  _220
REMARK   87  A    between atoms: _220  and  _221
REMARK   88  A    between atoms: _226  and  _228
REMARK   89  A    between atoms: _228  and  _229
REMARK   90  A    between atoms: _228  and  _231
REMARK   91  A    between atoms: _231  and  _232
REMARK   92  A    between atoms: _237  and  _238
REMARK   93  A    between atoms: _240  and  _242
REMARK   94  A    between atoms: _242  and  _243
REMARK   95  A    between atoms: _242  and  _245
REMARK   96  A    between atoms: _245  and  _246
REMARK   97  A    between atoms: _249  and  _251
REMARK   98  A    between atoms: _251  and  _252
REMARK   99  A    between atoms: _251  and  _254
REMARK  100  A    between atoms: _254  and  _255
REMARK  101  A    between atoms: _260  and  _262
REMARK  102  A    between atoms: _262  and  _263
REMARK  103  A    between atoms: _262  and  _265
REMARK  104  A    between atoms: _265  and  _266
REMARK  105  A    between atoms: _271  and  _273
REMARK  106  A    between atoms: _273  and  _274
REMARK  107  A    between atoms: _273  and  _276
REMARK  108  A    between atoms: _276  and  _277
REMARK  109  A    between atoms: _280  and  _282
REMARK  110  A    between atoms: _282  and  _283
REMARK  111  A    between atoms: _282  and  _285
REMARK  112  A    between atoms: _288  and  _290
REMARK  113  A    between atoms: _290  and  _291
REMARK  114  A    between atoms: _290  and  _293
REMARK  115  A    between atoms: _293  and  _294
REMARK  116  A    between atoms: _297  and  _299
REMARK  117  A    between atoms: _299  and  _300
REMARK  118  A    between atoms: _299  and  _302
REMARK  119  A    between atoms: _302  and  _303
REMARK  120  A    between atoms: _303  and  _304
REMARK  121  A    between atoms: _307  and  _309
REMARK  122  A    between atoms: _309  and  _310
REMARK  123  A    between atoms: _313  and  _315
REMARK  124  A    between atoms: _315  and  _316
REMARK  125  A    between atoms: _315  and  _318
REMARK  126  A    between atoms: _318  and  _319
REMARK  127  A    between atoms: _322  and  _324
REMARK  128  A    between atoms: _324  and  _325
REMARK  129  A    between atoms: _324  and  _327
REMARK  130  A    between atoms: _327  and  _328
REMARK  131  A    between atoms: _328  and  _329
REMARK  132  A    between atoms: _332  and  _334
REMARK  133  A    between atoms: _334  and  _335
REMARK  134  A    between atoms: _334  and  _337
REMARK  135  A    between atoms: _337  and  _338
REMARK  136  A    between atoms: _343  and  _345
REMARK  137  A    between atoms: _345  and  _346
REMARK  138  A    between atoms: _348  and  _350
REMARK  139  A    between atoms: _350  and  _351
REMARK  140  A    between atoms: _350  and  _353
REMARK  141  A    between atoms: _356  and  _358
REMARK  142  A    between atoms: _358  and  _359
REMARK  143  A    between atoms: _362  and  _364
REMARK  144  A    between atoms: _364  and  _365
REMARK  145  A    between atoms: _364  and  _367
REMARK  146  A    between atoms: _367  and  _368
REMARK  147  A    between atoms: _373  and  _375
REMARK  148  A    between atoms: _375  and  _376
REMARK  149  A    between atoms: _375  and  _378
REMARK  150  A    between atoms: _378  and  _379
REMARK  151  A    between atoms: _379  and  _380
REMARK  152  A    between atoms: _380  and  _381
REMARK  153  A    between atoms: _381  and  _382
REMARK  154  A    between atoms: _386  and  _388
REMARK  155  A    between atoms: _388  and  _389
REMARK  156  A    between atoms: _388  and  _391
REMARK  157  A    between atoms: _391  and  _392
REMARK  158  A    between atoms: _395  and  _397
REMARK  159  A    between atoms: _397  and  _398
REMARK  160  A    between atoms: _397  and  _400
REMARK  161  A    between atoms: _400  and  _401
REMARK  162  A    between atoms: _406  and  _408
REMARK  163  A    between atoms: _408  and  _409
REMARK  164  A    between atoms: _411  and  _413
REMARK  165  A    between atoms: _413  and  _414
REMARK  166  A    between atoms: _413  and  _416
REMARK  167  A    between atoms: _416  and  _417
REMARK  168  A    between atoms: _417  and  _418
REMARK  169  A    between atoms: _418  and  _419
REMARK  170  A    between atoms: _419  and  _420
REMARK  171  A    between atoms: _424  and  _426
REMARK  172  A    between atoms: _426  and  _427
REMARK  173  A    between atoms: _426  and  _429
REMARK  174  A    between atoms: _429  and  _430
REMARK  175  A    between atoms: _430  and  _431
REMARK  176  A    between atoms: _431  and  _432
REMARK  177  A    between atoms: _441  and  _443
REMARK  178  A    between atoms: _443  and  _444
REMARK  179  A    between atoms: _443  and  _446
REMARK  180  A    between atoms: _446  and  _447
REMARK  181  A    between atoms: _452  and  _454
REMARK  182  A    between atoms: _454  and  _455
REMARK  183  A    between atoms: _454  and  _457
REMARK  184  A    between atoms: _457  and  _458
REMARK  185  A    between atoms: _463  and  _464
REMARK  186  A    between atoms: _466  and  _468
REMARK  187  A    between atoms: _468  and  _469
REMARK  188  A    between atoms: _468  and  _471
REMARK  189  A    between atoms: _471  and  _472
REMARK  190  A    between atoms: _472  and  _473
REMARK  191  A    between atoms: _473  and  _474
REMARK  192  A    between atoms: _474  and  _475
REMARK  193  A    between atoms: _479  and  _481
REMARK  194  A    between atoms: _481  and  _482
REMARK  195  A    between atoms: _481  and  _484
REMARK  196  A    between atoms: _484  and  _485
REMARK  197  A    between atoms: _487  and  _489
REMARK  198  A    between atoms: _489  and  _490
REMARK  199  A    between atoms: _489  and  _492
REMARK  200  A    between atoms: _492  and  _493
REMARK  201  A    between atoms: _496  and  _498
REMARK  202  A    between atoms: _498  and  _499
REMARK  203  A    between atoms: _498  and  _501
REMARK  204  A    between atoms: _501  and  _502
REMARK  205  A    between atoms: _502  and  _503
REMARK  206  A    between atoms: _506  and  _508
REMARK  207  A    between atoms: _508  and  _509
REMARK  208  A    between atoms: _512  and  _514
REMARK  209  A    between atoms: _514  and  _515
REMARK  210  A    between atoms: _514  and  _517
REMARK  211  A    between atoms: _517  and  _518
REMARK  212  A    between atoms: _520  and  _522
REMARK  213  A    between atoms: _522  and  _523
REMARK  214  A    between atoms: _525  and  _527
REMARK  215  A    between atoms: _527  and  _528
REMARK  216  A    between atoms: _527  and  _530
REMARK  217  A    between atoms: _530  and  _531
REMARK  218  A    between atoms: _534  and  _536
REMARK  219  A    between atoms: _536  and  _537
REMARK  220  A    between atoms: _539  and  _541
REMARK  221  A    between atoms: _541  and  _542
REMARK  222  A    between atoms: _541  and  _544
REMARK  223  A    between atoms: _544  and  _545
REMARK  224  A    between atoms: _550  and  _552
REMARK  225  A    between atoms: _552  and  _553
REMARK  226  A    between atoms: _552  and  _555
REMARK  227  A    between atoms: _555  and  _556
REMARK  228  A    between atoms: _556  and  _557
REMARK  229  A    between atoms: _564  and  _565
REMARK  230  A    between atoms: _565  and  _581
REMARK  231  A    between atoms: _566  and  _568
REMARK  232  A    between atoms: _568  and  _569
REMARK  233  A    between atoms: _569  and  _570
REMARK  234  A    between atoms: _574  and  _576
REMARK  235  A    between atoms: _576  and  _577
REMARK  236  A    between atoms: _576  and  _584
REMARK  237  A    between atoms: _577  and  _578
REMARK  238  A    between atoms: _578  and  _579
REMARK  239  A    between atoms: _579  and  _580
REMARK  240  A    between atoms: _580  and  _581
REMARK  241  A    between atoms: _586  and  _588
REMARK  242  A    between atoms: _588  and  _589
REMARK  243  A    between atoms: _588  and  _591
REMARK  244  A    between atoms: _591  and  _592
REMARK  245  A    between atoms: _595  and  _597
REMARK  246  A    between atoms: _597  and  _598
REMARK  247  A    between atoms: _600  and  _602
REMARK  248  A    between atoms: _602  and  _603
REMARK  249  A    between atoms: _606  and  _608
REMARK  250  A    between atoms: _608  and  _609
REMARK  251  A    between atoms: _608  and  _611
REMARK  252  A    between atoms: _611  and  _612
REMARK  253  A    between atoms: _617  and  _618
REMARK                            x       y       z     vdW  Elec       q    Type
REMARK                         _______ _______ _______ _____ _____    ______ ____
ROOT
ATOM      1  O   HOH     1      28.720  27.124  20.477  0.00  0.00    +0.000 OA
ENDROOT
TORSDOF 0
REMARK  Name = ../refined-set-2016/3g2h/3g2h_pocket.pdb
REMARK  253 active torsions:
REMARK  status: ('A' for Active; 'I' for Inactive)
REMARK    1  A    between atoms: _1  and  _3
REMARK    2  A    between atoms: _3  and  _4
REMARK    3  A    between atoms: _3  and  _6
REMARK    4  A    between atoms: _6  and  _7
REMARK    5  A    between atoms: _12  and  _13
REMARK    6  A    between atoms: _15  and  _17
REMARK    7  A    between atoms: _17  and  _18
REMARK    8  A    between atoms: _17  and  _20
REMARK    9  A    between atoms: _20  and  _21
REMARK   10  A    between atoms: _21  and  _22
REMARK   11  A    between atoms: _25  and  _27
REMARK   12  A    between atoms: _27  and  _28
REMARK   13  A    between atoms: _27  and  _30
REMARK   14  A    between atoms: _30  and  _31
REMARK   15  A    between atoms: _36  and  _38
REMARK   16  A    between atoms: _38  and  _39
REMARK   17  A    between atoms: _41  and  _43
REMARK   18  A    between atoms: _43  and  _44
REMARK   19  A    between atoms: _46  and  _48
REMARK   20  A    between atoms: _48  and  _49
REMARK   21  A    between atoms: _48  and  _51
REMARK   22  A    between atoms: _51  and  _52
REMARK   23  A    between atoms: _55  and  _57
REMARK   24  A    between atoms: _57  and  _58
REMARK   25  A    between atoms: _60  and  _62
REMARK   26  A    between atoms: _62  and  _63
REMARK   27  A    between atoms: _62  and  _65
REMARK   28  A    between atoms: _65  and  _66
REMARK   29  A    between atoms: _66  and  _67
REMARK   30  A    between atoms: _67  and  _68
REMARK   31  A    between atoms: _77  and  _79
REMARK   32  A    between atoms: _79  and  _80
REMARK   33  A    between atoms: _79  and  _82
REMARK   34  A    between atoms: _82  and  _83
REMARK   35  A    between atoms: _86  and  _88
REMARK   36  A    between atoms: _88  and  _89
REMARK   37  A    between atoms: _92  and  _94
REMARK   38  A    between atoms: _94  and  _95
REMARK   39  A    between atoms: _94  and  _97
REMARK   40  A    between atoms: _97  and  _98
REMARK   41  A    between atoms: _104  and  _106
REMARK   42  A    between atoms: _106  and  _107
REMARK   43  A    between atoms: _106  and  _109
REMARK   44  A    between atoms: _109  and  _110
REMARK   45  A    between atoms: _115  and  _117
REMARK   46  A    between atoms: _117  and  _118
REMARK   47  A    between atoms: _117  and  _120
REMARK   48  A    between atoms: _120  and  _121
REMARK   49  A    between atoms: _124  and  _126
REMARK   50  A    between atoms: _126  and  _127
REMARK   51  A    between atoms: _126  and  _129
REMARK   52  A    between atoms: _129  and  _130
REMARK   53  A    between atoms: _135  and  _137
REMARK   54  A    between atoms: _137  and  _138
REMARK   55  A    between atoms: _137  and  _140
REMARK   56  A    between atoms: _140  and  _141
REMARK   57  A    between atoms: _147  and  _149
REMARK   58  A    between atoms: _149  and  _150
REMARK   59  A    between atoms: _149  and  _152
REMARK   60  A    between atoms: _152  and  _153
REMARK   61  A    between atoms: _159  and  _161
REMARK   62  A    between atoms: _161  and  _162
REMARK   63  A    between atoms: _161  and  _164
REMARK   64  A    between atoms: _164  and  _165
REMARK   65  A    between atoms: _165  and  _166
REMARK   66  A    between atoms: _169  and  _171
REMARK   67  A    between atoms: _171  and  _172
REMARK   68  A    between atoms: _171  and  _174
REMARK   69  A    between atoms: _174  and  _175
REMARK   70  A    between atoms: _175  and  _176
REMARK   71  A    between atoms: _176  and  _177
REMARK   72  A    between atoms: _186  and  _188
REMARK   73  A    between atoms: _188  and  _189
REMARK   74  A    between atoms: _188  and  _191
REMARK   75  A    between atoms: _191  and  _192
REMARK   76  A    between atoms: _197  and  _199
REMARK   77  A    between atoms: _199  and  _200
REMARK   78  A    between atoms: _199  and  _202
REMARK   79  A    between atoms: _202  and  _203
REMARK   80  A    between atoms: _206  and  _208
REMARK   81  A    between atoms: _208  and  _209
REMARK   82  A    between atoms: _208  and  _211
REMARK   83  A    between atoms: _211  and  _212
REMARK   84  A    between atoms: _215  and  _217
REMARK   85  A    between atoms: _217  and  _218
REMARK   86  A    between atoms: _217  and  _220
REMARK   87  A    between atoms: _220  and  _221
REMARK   88  A    between atoms: _226  and  _228
REMARK   89  A    between atoms: _228  and  _229
REMARK   90  A    between atoms: _228  and  _231
REMARK   91  A    between atoms: _231  and  _232
REMARK   92  A    between atoms: _237  and  _238
REMARK   93  A    between atoms: _240  and  _242
REMARK   94  A    between atoms: _242  and  _243
REMARK   95  A    between atoms: _242  and  _245
REMARK   96  A    between atoms: _245  and  _246
REMARK   97  A    between atoms: _249  and  _251
REMARK   98  A    between atoms: _251  and  _252
REMARK   99  A    between atoms: _251  and  _254
REMARK  100  A    between atoms: _254  and  _255
REMARK  101  A    between atoms: _260  and  _262
REMARK  102  A    between atoms: _262  and  _263
REMARK  103  A    between atoms: _262  and  _265
REMARK  104  A    between atoms: _265  and  _266
REMARK  105  A    between atoms: _271  and  _273
REMARK  106  A    between atoms: _273  and  _274
REMARK  107  A    between atoms: _273  and  _276
REMARK  108  A    between atoms: _276  and  _277
REMARK  109  A    between atoms: _280  and  _282
REMARK  110  A    between atoms: _282  and  _283
REMARK  111  A    between atoms: _282  and  _285
REMARK  112  A    between atoms: _288  and  _290
REMARK  113  A    between atoms: _290  and  _291
REMARK  114  A    between atoms: _290  and  _293
REMARK  115  A    between atoms: _293  and  _294
REMARK  116  A    between atoms: _297  and  _299
REMARK  117  A    between atoms: _299  and  _300
REMARK  118  A    between atoms: _299  and  _302
REMARK  119  A    between atoms: _302  and  _303
REMARK  120  A    between atoms: _303  and  _304
REMARK  121  A    between atoms: _307  and  _309
REMARK  122  A    between atoms: _309  and  _310
REMARK  123  A    between atoms: _313  and  _315
REMARK  124  A    between atoms: _315  and  _316
REMARK  125  A    between atoms: _315  and  _318
REMARK  126  A    between atoms: _318  and  _319
REMARK  127  A    between atoms: _322  and  _324
REMARK  128  A    between atoms: _324  and  _325
REMARK  129  A    between atoms: _324  and  _327
REMARK  130  A    between atoms: _327  and  _328
REMARK  131  A    between atoms: _328  and  _329
REMARK  132  A    between atoms: _332  and  _334
REMARK  133  A    between atoms: _334  and  _335
REMARK  134  A    between atoms: _334  and  _337
REMARK  135  A    between atoms: _337  and  _338
REMARK  136  A    between atoms: _343  and  _345
REMARK  137  A    between atoms: _345  and  _346
REMARK  138  A    between atoms: _348  and  _350
REMARK  139  A    between atoms: _350  and  _351
REMARK  140  A    between atoms: _350  and  _353
REMARK  141  A    between atoms: _356  and  _358
REMARK  142  A    between atoms: _358  and  _359
REMARK  143  A    between atoms: _362  and  _364
REMARK  144  A    between atoms: _364  and  _365
REMARK  145  A    between atoms: _364  and  _367
REMARK  146  A    between atoms: _367  and  _368
REMARK  147  A    between atoms: _373  and  _375
REMARK  148  A    between atoms: _375  and  _376
REMARK  149  A    between atoms: _375  and  _378
REMARK  150  A    between atoms: _378  and  _379
REMARK  151  A    between atoms: _379  and  _380
REMARK  152  A    between atoms: _380  and  _381
REMARK  153  A    between atoms: _381  and  _382
REMARK  154  A    between atoms: _386  and  _388
REMARK  155  A    between atoms: _388  and  _389
REMARK  156  A    between atoms: _388  and  _391
REMARK  157  A    between atoms: _391  and  _392
REMARK  158  A    between atoms: _395  and  _397
REMARK  159  A    between atoms: _397  and  _398
REMARK  160  A    between atoms: _397  and  _400
REMARK  161  A    between atoms: _400  and  _401
REMARK  162  A    between atoms: _406  and  _408
REMARK  163  A    between atoms: _408  and  _409
REMARK  164  A    between atoms: _411  and  _413
REMARK  165  A    between atoms: _413  and  _414
REMARK  166  A    between atoms: _413  and  _416
REMARK  167  A    between atoms: _416  and  _417
REMARK  168  A    between atoms: _417  and  _418
REMARK  169  A    between atoms: _418  and  _419
REMARK  170  A    between atoms: _419  and  _420
REMARK  171  A    between atoms: _424  and  _426
REMARK  172  A    between atoms: _426  and  _427
REMARK  173  A    between atoms: _426  and  _429
REMARK  174  A    between atoms: _429  and  _430
REMARK  175  A    between atoms: _430  and  _431
REMARK  176  A    between atoms: _431  and  _432
REMARK  177  A    between atoms: _441  and  _443
REMARK  178  A    between atoms: _443  and  _444
REMARK  179  A    between atoms: _443  and  _446
REMARK  180  A    between atoms: _446  and  _447
REMARK  181  A    between atoms: _452  and  _454
REMARK  182  A    between atoms: _454  and  _455
REMARK  183  A    between atoms: _454  and  _457
REMARK  184  A    between atoms: _457  and  _458
REMARK  185  A    between atoms: _463  and  _464
REMARK  186  A    between atoms: _466  and  _468
REMARK  187  A    between atoms: _468  and  _469
REMARK  188  A    between atoms: _468  and  _471
REMARK  189  A    between atoms: _471  and  _472
REMARK  190  A    between atoms: _472  and  _473
REMARK  191  A    between atoms: _473  and  _474
REMARK  192  A    between atoms: _474  and  _475
REMARK  193  A    between atoms: _479  and  _481
REMARK  194  A    between atoms: _481  and  _482
REMARK  195  A    between atoms: _481  and  _484
REMARK  196  A    between atoms: _484  and  _485
REMARK  197  A    between atoms: _487  and  _489
REMARK  198  A    between atoms: _489  and  _490
REMARK  199  A    between atoms: _489  and  _492
REMARK  200  A    between atoms: _492  and  _493
REMARK  201  A    between atoms: _496  and  _498
REMARK  202  A    between atoms: _498  and  _499
REMARK  203  A    between atoms: _498  and  _501
REMARK  204  A    between atoms: _501  and  _502
REMARK  205  A    between atoms: _502  and  _503
REMARK  206  A    between atoms: _506  and  _508
REMARK  207  A    between atoms: _508  and  _509
REMARK  208  A    between atoms: _512  and  _514
REMARK  209  A    between atoms: _514  and  _515
REMARK  210  A    between atoms: _514  and  _517
REMARK  211  A    between atoms: _517  and  _518
REMARK  212  A    between atoms: _520  and  _522
REMARK  213  A    between atoms: _522  and  _523
REMARK  214  A    between atoms: _525  and  _527
REMARK  215  A    between atoms: _527  and  _528
REMARK  216  A    between atoms: _527  and  _530
REMARK  217  A    between atoms: _530  and  _531
REMARK  218  A    between atoms: _534  and  _536
REMARK  219  A    between atoms: _536  and  _537
REMARK  220  A    between atoms: _539  and  _541
REMARK  221  A    between atoms: _541  and  _542
REMARK  222  A    between atoms: _541  and  _544
REMARK  223  A    between atoms: _544  and  _545
REMARK  224  A    between atoms: _550  and  _552
REMARK  225  A    between atoms: _552  and  _553
REMARK  226  A    between atoms: _552  and  _555
REMARK  227  A    between atoms: _555  and  _556
REMARK  228  A    between atoms: _556  and  _557
REMARK  229  A    between atoms: _564  and  _565
REMARK  230  A    between atoms: _565  and  _581
REMARK  231  A    between atoms: _566  and  _568
REMARK  232  A    between atoms: _568  and  _569
REMARK  233  A    between atoms: _569  and  _570
REMARK  234  A    between atoms: _574  and  _576
REMARK  235  A    between atoms: _576  and  _577
REMARK  236  A    between atoms: _576  and  _584
REMARK  237  A    between atoms: _577  and  _578
REMARK  238  A    between atoms: _578  and  _579
REMARK  239  A    between atoms: _579  and  _580
REMARK  240  A    between atoms: _580  and  _581
REMARK  241  A    between atoms: _586  and  _588
REMARK  242  A    between atoms: _588  and  _589
REMARK  243  A    between atoms: _588  and  _591
REMARK  244  A    between atoms: _591  and  _592
REMARK  245  A    between atoms: _595  and  _597
REMARK  246  A    between atoms: _597  and  _598
REMARK  247  A    between atoms: _600  and  _602
REMARK  248  A    between atoms: _602  and  _603
REMARK  249  A    between atoms: _606  and  _608
REMARK  250  A    between atoms: _608  and  _609
REMARK  251  A    between atoms: _608  and  _611
REMARK  252  A    between atoms: _611  and  _612
REMARK  253  A    between atoms: _617  and  _618
REMARK                            x       y       z     vdW  Elec       q    Type
REMARK                         _______ _______ _______ _____ _____    ______ ____
ROOT
ATOM      1  O   HOH     1      25.813  16.453  28.475  0.00  0.00    +0.000 OA
ENDROOT
TORSDOF 0
REMARK  Name = ../refined-set-2016/3g2h/3g2h_pocket.pdb
REMARK  253 active torsions:
REMARK  status: ('A' for Active; 'I' for Inactive)
REMARK    1  A    between atoms: _1  and  _3
REMARK    2  A    between atoms: _3  and  _4
REMARK    3  A    between atoms: _3  and  _6
REMARK    4  A    between atoms: _6  and  _7
REMARK    5  A    between atoms: _12  and  _13
REMARK    6  A    between atoms: _15  and  _17
REMARK    7  A    between atoms: _17  and  _18
REMARK    8  A    between atoms: _17  and  _20
REMARK    9  A    between atoms: _20  and  _21
REMARK   10  A    between atoms: _21  and  _22
REMARK   11  A    between atoms: _25  and  _27
REMARK   12  A    between atoms: _27  and  _28
REMARK   13  A    between atoms: _27  and  _30
REMARK   14  A    between atoms: _30  and  _31
REMARK   15  A    between atoms: _36  and  _38
REMARK   16  A    between atoms: _38  and  _39
REMARK   17  A    between atoms: _41  and  _43
REMARK   18  A    between atoms: _43  and  _44
REMARK   19  A    between atoms: _46  and  _48
REMARK   20  A    between atoms: _48  and  _49
REMARK   21  A    between atoms: _48  and  _51
REMARK   22  A    between atoms: _51  and  _52
REMARK   23  A    between atoms: _55  and  _57
REMARK   24  A    between atoms: _57  and  _58
REMARK   25  A    between atoms: _60  and  _62
REMARK   26  A    between atoms: _62  and  _63
REMARK   27  A    between atoms: _62  and  _65
REMARK   28  A    between atoms: _65  and  _66
REMARK   29  A    between atoms: _66  and  _67
REMARK   30  A    between atoms: _67  and  _68
REMARK   31  A    between atoms: _77  and  _79
REMARK   32  A    between atoms: _79  and  _80
REMARK   33  A    between atoms: _79  and  _82
REMARK   34  A    between atoms: _82  and  _83
REMARK   35  A    between atoms: _86  and  _88
REMARK   36  A    between atoms: _88  and  _89
REMARK   37  A    between atoms: _92  and  _94
REMARK   38  A    between atoms: _94  and  _95
REMARK   39  A    between atoms: _94  and  _97
REMARK   40  A    between atoms: _97  and  _98
REMARK   41  A    between atoms: _104  and  _106
REMARK   42  A    between atoms: _106  and  _107
REMARK   43  A    between atoms: _106  and  _109
REMARK   44  A    between atoms: _109  and  _110
REMARK   45  A    between atoms: _115  and  _117
REMARK   46  A    between atoms: _117  and  _118
REMARK   47  A    between atoms: _117  and  _120
REMARK   48  A    between atoms: _120  and  _121
REMARK   49  A    between atoms: _124  and  _126
REMARK   50  A    between atoms: _126  and  _127
REMARK   51  A    between atoms: _126  and  _129
REMARK   52  A    between atoms: _129  and  _130
REMARK   53  A    between atoms: _135  and  _137
REMARK   54  A    between atoms: _137  and  _138
REMARK   55  A    between atoms: _137  and  _140
REMARK   56  A    between atoms: _140  and  _141
REMARK   57  A    between atoms: _147  and  _149
REMARK   58  A    between atoms: _149  and  _150
REMARK   59  A    between atoms: _149  and  _152
REMARK   60  A    between atoms: _152  and  _153
REMARK   61  A    between atoms: _159  and  _161
REMARK   62  A    between atoms: _161  and  _162
REMARK   63  A    between atoms: _161  and  _164
REMARK   64  A    between atoms: _164  and  _165
REMARK   65  A    between atoms: _165  and  _166
REMARK   66  A    between atoms: _169  and  _171
REMARK   67  A    between atoms: _171  and  _172
REMARK   68  A    between atoms: _171  and  _174
REMARK   69  A    between atoms: _174  and  _175
REMARK   70  A    between atoms: _175  and  _176
REMARK   71  A    between atoms: _176  and  _177
REMARK   72  A    between atoms: _186  and  _188
REMARK   73  A    between atoms: _188  and  _189
REMARK   74  A    between atoms: _188  and  _191
REMARK   75  A    between atoms: _191  and  _192
REMARK   76  A    between atoms: _197  and  _199
REMARK   77  A    between atoms: _199  and  _200
REMARK   78  A    between atoms: _199  and  _202
REMARK   79  A    between atoms: _202  and  _203
REMARK   80  A    between atoms: _206  and  _208
REMARK   81  A    between atoms: _208  and  _209
REMARK   82  A    between atoms: _208  and  _211
REMARK   83  A    between atoms: _211  and  _212
REMARK   84  A    between atoms: _215  and  _217
REMARK   85  A    between atoms: _217  and  _218
REMARK   86  A    between atoms: _217  and  _220
REMARK   87  A    between atoms: _220  and  _221
REMARK   88  A    between atoms: _226  and  _228
REMARK   89  A    between atoms: _228  and  _229
REMARK   90  A    between atoms: _228  and  _231
REMARK   91  A    between atoms: _231  and  _232
REMARK   92  A    between atoms: _237  and  _238
REMARK   93  A    between atoms: _240  and  _242
REMARK   94  A    between atoms: _242  and  _243
REMARK   95  A    between atoms: _242  and  _245
REMARK   96  A    between atoms: _245  and  _246
REMARK   97  A    between atoms: _249  and  _251
REMARK   98  A    between atoms: _251  and  _252
REMARK   99  A    between atoms: _251  and  _254
REMARK  100  A    between atoms: _254  and  _255
REMARK  101  A    between atoms: _260  and  _262
REMARK  102  A    between atoms: _262  and  _263
REMARK  103  A    between atoms: _262  and  _265
REMARK  104  A    between atoms: _265  and  _266
REMARK  105  A    between atoms: _271  and  _273
REMARK  106  A    between atoms: _273  and  _274
REMARK  107  A    between atoms: _273  and  _276
REMARK  108  A    between atoms: _276  and  _277
REMARK  109  A    between atoms: _280  and  _282
REMARK  110  A    between atoms: _282  and  _283
REMARK  111  A    between atoms: _282  and  _285
REMARK  112  A    between atoms: _288  and  _290
REMARK  113  A    between atoms: _290  and  _291
REMARK  114  A    between atoms: _290  and  _293
REMARK  115  A    between atoms: _293  and  _294
REMARK  116  A    between atoms: _297  and  _299
REMARK  117  A    between atoms: _299  and  _300
REMARK  118  A    between atoms: _299  and  _302
REMARK  119  A    between atoms: _302  and  _303
REMARK  120  A    between atoms: _303  and  _304
REMARK  121  A    between atoms: _307  and  _309
REMARK  122  A    between atoms: _309  and  _310
REMARK  123  A    between atoms: _313  and  _315
REMARK  124  A    between atoms: _315  and  _316
REMARK  125  A    between atoms: _315  and  _318
REMARK  126  A    between atoms: _318  and  _319
REMARK  127  A    between atoms: _322  and  _324
REMARK  128  A    between atoms: _324  and  _325
REMARK  129  A    between atoms: _324  and  _327
REMARK  130  A    between atoms: _327  and  _328
REMARK  131  A    between atoms: _328  and  _329
REMARK  132  A    between atoms: _332  and  _334
REMARK  133  A    between atoms: _334  and  _335
REMARK  134  A    between atoms: _334  and  _337
REMARK  135  A    between atoms: _337  and  _338
REMARK  136  A    between atoms: _343  and  _345
REMARK  137  A    between atoms: _345  and  _346
REMARK  138  A    between atoms: _348  and  _350
REMARK  139  A    between atoms: _350  and  _351
REMARK  140  A    between atoms: _350  and  _353
REMARK  141  A    between atoms: _356  and  _358
REMARK  142  A    between atoms: _358  and  _359
REMARK  143  A    between atoms: _362  and  _364
REMARK  144  A    between atoms: _364  and  _365
REMARK  145  A    between atoms: _364  and  _367
REMARK  146  A    between atoms: _367  and  _368
REMARK  147  A    between atoms: _373  and  _375
REMARK  148  A    between atoms: _375  and  _376
REMARK  149  A    between atoms: _375  and  _378
REMARK  150  A    between atoms: _378  and  _379
REMARK  151  A    between atoms: _379  and  _380
REMARK  152  A    between atoms: _380  and  _381
REMARK  153  A    between atoms: _381  and  _382
REMARK  154  A    between atoms: _386  and  _388
REMARK  155  A    between atoms: _388  and  _389
REMARK  156  A    between atoms: _388  and  _391
REMARK  157  A    between atoms: _391  and  _392
REMARK  158  A    between atoms: _395  and  _397
REMARK  159  A    between atoms: _397  and  _398
REMARK  160  A    between atoms: _397  and  _400
REMARK  161  A    between atoms: _400  and  _401
REMARK  162  A    between atoms: _406  and  _408
REMARK  163  A    between atoms: _408  and  _409
REMARK  164  A    between atoms: _411  and  _413
REMARK  165  A    between atoms: _413  and  _414
REMARK  166  A    between atoms: _413  and  _416
REMARK  167  A    between atoms: _416  and  _417
REMARK  168  A    between atoms: _417  and  _418
REMARK  169  A    between atoms: _418  and  _419
REMARK  170  A    between atoms: _419  and  _420
REMARK  171  A    between atoms: _424  and  _426
REMARK  172  A    between atoms: _426  and  _427
REMARK  173  A    between atoms: _426  and  _429
REMARK  174  A    between atoms: _429  and  _430
REMARK  175  A    between atoms: _430  and  _431
REMARK  176  A    between atoms: _431  and  _432
REMARK  177  A    between atoms: _441  and  _443
REMARK  178  A    between atoms: _443  and  _444
REMARK  179  A    between atoms: _443  and  _446
REMARK  180  A    between atoms: _446  and  _447
REMARK  181  A    between atoms: _452  and  _454
REMARK  182  A    between atoms: _454  and  _455
REMARK  183  A    between atoms: _454  and  _457
REMARK  184  A    between atoms: _457  and  _458
REMARK  185  A    between atoms: _463  and  _464
REMARK  186  A    between atoms: _466  and  _468
REMARK  187  A    between atoms: _468  and  _469
REMARK  188  A    between atoms: _468  and  _471
REMARK  189  A    between atoms: _471  and  _472
REMARK  190  A    between atoms: _472  and  _473
REMARK  191  A    between atoms: _473  and  _474
REMARK  192  A    between atoms: _474  and  _475
REMARK  193  A    between atoms: _479  and  _481
REMARK  194  A    between atoms: _481  and  _482
REMARK  195  A    between atoms: _481  and  _484
REMARK  196  A    between atoms: _484  and  _485
REMARK  197  A    between atoms: _487  and  _489
REMARK  198  A    between atoms: _489  and  _490
REMARK  199  A    between atoms: _489  and  _492
REMARK  200  A    between atoms: _492  and  _493
REMARK  201  A    between atoms: _496  and  _498
REMARK  202  A    between atoms: _498  and  _499
REMARK  203  A    between atoms: _498  and  _501
REMARK  204  A    between atoms: _501  and  _502
REMARK  205  A    between atoms: _502  and  _503
REMARK  206  A    between atoms: _506  and  _508
REMARK  207  A    between atoms: _508  and  _509
REMARK  208  A    between atoms: _512  and  _514
REMARK  209  A    between atoms: _514  and  _515
REMARK  210  A    between atoms: _514  and  _517
REMARK  211  A    between atoms: _517  and  _518
REMARK  212  A    between atoms: _520  and  _522
REMARK  213  A    between atoms: _522  and  _523
REMARK  214  A    between atoms: _525  and  _527
REMARK  215  A    between atoms: _527  and  _528
REMARK  216  A    between atoms: _527  and  _530
REMARK  217  A    between atoms: _530  and  _531
REMARK  218  A    between atoms: _534  and  _536
REMARK  219  A    between atoms: _536  and  _537
REMARK  220  A    between atoms: _539  and  _541
REMARK  221  A    between atoms: _541  and  _542
REMARK  222  A    between atoms: _541  and  _544
REMARK  223  A    between atoms: _544  and  _545
REMARK  224  A    between atoms: _550  and  _552
REMARK  225  A    between atoms: _552  and  _553
REMARK  226  A    between atoms: _552  and  _555
REMARK  227  A    between atoms: _555  and  _556
REMARK  228  A    between atoms: _556  and  _557
REMARK  229  A    between atoms: _564  and  _565
REMARK  230  A    between atoms: _565  and  _581
REMARK  231  A    between atoms: _566  and  _568
REMARK  232  A    between atoms: _568  and  _569
REMARK  233  A    between atoms: _569  and  _570
REMARK  234  A    between atoms: _574  and  _576
REMARK  235  A    between atoms: _576  and  _577
REMARK  236  A    between atoms: _576  and  _584
REMARK  237  A    between atoms: _577  and  _578
REMARK  238  A    between atoms: _578  and  _579
REMARK  239  A    between atoms: _579  and  _580
REMARK  240  A    between atoms: _580  and  _581
REMARK  241  A    between atoms: _586  and  _588
REMARK  242  A    between atoms: _588  and  _589
REMARK  243  A    between atoms: _588  and  _591
REMARK  244  A    between atoms: _591  and  _592
REMARK  245  A    between atoms: _595  and  _597
REMARK  246  A    between atoms: _597  and  _598
REMARK  247  A    between atoms: _600  and  _602
REMARK  248  A    between atoms: _602  and  _603
REMARK  249  A    between atoms: _606  and  _608
REMARK  250  A    between atoms: _608  and  _609
REMARK  251  A    between atoms: _608  and  _611
REMARK  252  A    between atoms: _611  and  _612
REMARK  253  A    between atoms: _617  and  _618
REMARK                            x       y       z     vdW  Elec       q    Type
REMARK                         _______ _______ _______ _____ _____    ______ ____
ROOT
ATOM      1  O   HOH     1      43.912  22.624  31.842  0.00  0.00    +0.000 OA
ENDROOT
TORSDOF 0
REMARK  Name = ../refined-set-2016/3g2h/3g2h_pocket.pdb
REMARK  253 active torsions:
REMARK  status: ('A' for Active; 'I' for Inactive)
REMARK    1  A    between atoms: _1  and  _3
REMARK    2  A    between atoms: _3  and  _4
REMARK    3  A    between atoms: _3  and  _6
REMARK    4  A    between atoms: _6  and  _7
REMARK    5  A    between atoms: _12  and  _13
REMARK    6  A    between atoms: _15  and  _17
REMARK    7  A    between atoms: _17  and  _18
REMARK    8  A    between atoms: _17  and  _20
REMARK    9  A    between atoms: _20  and  _21
REMARK   10  A    between atoms: _21  and  _22
REMARK   11  A    between atoms: _25  and  _27
REMARK   12  A    between atoms: _27  and  _28
REMARK   13  A    between atoms: _27  and  _30
REMARK   14  A    between atoms: _30  and  _31
REMARK   15  A    between atoms: _36  and  _38
REMARK   16  A    between atoms: _38  and  _39
REMARK   17  A    between atoms: _41  and  _43
REMARK   18  A    between atoms: _43  and  _44
REMARK   19  A    between atoms: _46  and  _48
REMARK   20  A    between atoms: _48  and  _49
REMARK   21  A    between atoms: _48  and  _51
REMARK   22  A    between atoms: _51  and  _52
REMARK   23  A    between atoms: _55  and  _57
REMARK   24  A    between atoms: _57  and  _58
REMARK   25  A    between atoms: _60  and  _62
REMARK   26  A    between atoms: _62  and  _63
REMARK   27  A    between atoms: _62  and  _65
REMARK   28  A    between atoms: _65  and  _66
REMARK   29  A    between atoms: _66  and  _67
REMARK   30  A    between atoms: _67  and  _68
REMARK   31  A    between atoms: _77  and  _79
REMARK   32  A    between atoms: _79  and  _80
REMARK   33  A    between atoms: _79  and  _82
REMARK   34  A    between atoms: _82  and  _83
REMARK   35  A    between atoms: _86  and  _88
REMARK   36  A    between atoms: _88  and  _89
REMARK   37  A    between atoms: _92  and  _94
REMARK   38  A    between atoms: _94  and  _95
REMARK   39  A    between atoms: _94  and  _97
REMARK   40  A    between atoms: _97  and  _98
REMARK   41  A    between atoms: _104  and  _106
REMARK   42  A    between atoms: _106  and  _107
REMARK   43  A    between atoms: _106  and  _109
REMARK   44  A    between atoms: _109  and  _110
REMARK   45  A    between atoms: _115  and  _117
REMARK   46  A    between atoms: _117  and  _118
REMARK   47  A    between atoms: _117  and  _120
REMARK   48  A    between atoms: _120  and  _121
REMARK   49  A    between atoms: _124  and  _126
REMARK   50  A    between atoms: _126  and  _127
REMARK   51  A    between atoms: _126  and  _129
REMARK   52  A    between atoms: _129  and  _130
REMARK   53  A    between atoms: _135  and  _137
REMARK   54  A    between atoms: _137  and  _138
REMARK   55  A    between atoms: _137  and  _140
REMARK   56  A    between atoms: _140  and  _141
REMARK   57  A    between atoms: _147  and  _149
REMARK   58  A    between atoms: _149  and  _150
REMARK   59  A    between atoms: _149  and  _152
REMARK   60  A    between atoms: _152  and  _153
REMARK   61  A    between atoms: _159  and  _161
REMARK   62  A    between atoms: _161  and  _162
REMARK   63  A    between atoms: _161  and  _164
REMARK   64  A    between atoms: _164  and  _165
REMARK   65  A    between atoms: _165  and  _166
REMARK   66  A    between atoms: _169  and  _171
REMARK   67  A    between atoms: _171  and  _172
REMARK   68  A    between atoms: _171  and  _174
REMARK   69  A    between atoms: _174  and  _175
REMARK   70  A    between atoms: _175  and  _176
REMARK   71  A    between atoms: _176  and  _177
REMARK   72  A    between atoms: _186  and  _188
REMARK   73  A    between atoms: _188  and  _189
REMARK   74  A    between atoms: _188  and  _191
REMARK   75  A    between atoms: _191  and  _192
REMARK   76  A    between atoms: _197  and  _199
REMARK   77  A    between atoms: _199  and  _200
REMARK   78  A    between atoms: _199  and  _202
REMARK   79  A    between atoms: _202  and  _203
REMARK   80  A    between atoms: _206  and  _208
REMARK   81  A    between atoms: _208  and  _209
REMARK   82  A    between atoms: _208  and  _211
REMARK   83  A    between atoms: _211  and  _212
REMARK   84  A    between atoms: _215  and  _217
REMARK   85  A    between atoms: _217  and  _218
REMARK   86  A    between atoms: _217  and  _220
REMARK   87  A    between atoms: _220  and  _221
REMARK   88  A    between atoms: _226  and  _228
REMARK   89  A    between atoms: _228  and  _229
REMARK   90  A    between atoms: _228  and  _231
REMARK   91  A    between atoms: _231  and  _232
REMARK   92  A    between atoms: _237  and  _238
REMARK   93  A    between atoms: _240  and  _242
REMARK   94  A    between atoms: _242  and  _243
REMARK   95  A    between atoms: _242  and  _245
REMARK   96  A    between atoms: _245  and  _246
REMARK   97  A    between atoms: _249  and  _251
REMARK   98  A    between atoms: _251  and  _252
REMARK   99  A    between atoms: _251  and  _254
REMARK  100  A    between atoms: _254  and  _255
REMARK  101  A    between atoms: _260  and  _262
REMARK  102  A    between atoms: _262  and  _263
REMARK  103  A    between atoms: _262  and  _265
REMARK  104  A    between atoms: _265  and  _266
REMARK  105  A    between atoms: _271  and  _273
REMARK  106  A    between atoms: _273  and  _274
REMARK  107  A    between atoms: _273  and  _276
REMARK  108  A    between atoms: _276  and  _277
REMARK  109  A    between atoms: _280  and  _282
REMARK  110  A    between atoms: _282  and  _283
REMARK  111  A    between atoms: _282  and  _285
REMARK  112  A    between atoms: _288  and  _290
REMARK  113  A    between atoms: _290  and  _291
REMARK  114  A    between atoms: _290  and  _293
REMARK  115  A    between atoms: _293  and  _294
REMARK  116  A    between atoms: _297  and  _299
REMARK  117  A    between atoms: _299  and  _300
REMARK  118  A    between atoms: _299  and  _302
REMARK  119  A    between atoms: _302  and  _303
REMARK  120  A    between atoms: _303  and  _304
REMARK  121  A    between atoms: _307  and  _309
REMARK  122  A    between atoms: _309  and  _310
REMARK  123  A    between atoms: _313  and  _315
REMARK  124  A    between atoms: _315  and  _316
REMARK  125  A    between atoms: _315  and  _318
REMARK  126  A    between atoms: _318  and  _319
REMARK  127  A    between atoms: _322  and  _324
REMARK  128  A    between atoms: _324  and  _325
REMARK  129  A    between atoms: _324  and  _327
REMARK  130  A    between atoms: _327  and  _328
REMARK  131  A    between atoms: _328  and  _329
REMARK  132  A    between atoms: _332  and  _334
REMARK  133  A    between atoms: _334  and  _335
REMARK  134  A    between atoms: _334  and  _337
REMARK  135  A    between atoms: _337  and  _338
REMARK  136  A    between atoms: _343  and  _345
REMARK  137  A    between atoms: _345  and  _346
REMARK  138  A    between atoms: _348  and  _350
REMARK  139  A    between atoms: _350  and  _351
REMARK  140  A    between atoms: _350  and  _353
REMARK  141  A    between atoms: _356  and  _358
REMARK  142  A    between atoms: _358  and  _359
REMARK  143  A    between atoms: _362  and  _364
REMARK  144  A    between atoms: _364  and  _365
REMARK  145  A    between atoms: _364  and  _367
REMARK  146  A    between atoms: _367  and  _368
REMARK  147  A    between atoms: _373  and  _375
REMARK  148  A    between atoms: _375  and  _376
REMARK  149  A    between atoms: _375  and  _378
REMARK  150  A    between atoms: _378  and  _379
REMARK  151  A    between atoms: _379  and  _380
REMARK  152  A    between atoms: _380  and  _381
REMARK  153  A    between atoms: _381  and  _382
REMARK  154  A    between atoms: _386  and  _388
REMARK  155  A    between atoms: _388  and  _389
REMARK  156  A    between atoms: _388  and  _391
REMARK  157  A    between atoms: _391  and  _392
REMARK  158  A    between atoms: _395  and  _397
REMARK  159  A    between atoms: _397  and  _398
REMARK  160  A    between atoms: _397  and  _400
REMARK  161  A    between atoms: _400  and  _401
REMARK  162  A    between atoms: _406  and  _408
REMARK  163  A    between atoms: _408  and  _409
REMARK  164  A    between atoms: _411  and  _413
REMARK  165  A    between atoms: _413  and  _414
REMARK  166  A    between atoms: _413  and  _416
REMARK  167  A    between atoms: _416  and  _417
REMARK  168  A    between atoms: _417  and  _418
REMARK  169  A    between atoms: _418  and  _419
REMARK  170  A    between atoms: _419  and  _420
REMARK  171  A    between atoms: _424  and  _426
REMARK  172  A    between atoms: _426  and  _427
REMARK  173  A    between atoms: _426  and  _429
REMARK  174  A    between atoms: _429  and  _430
REMARK  175  A    between atoms: _430  and  _431
REMARK  176  A    between atoms: _431  and  _432
REMARK  177  A    between atoms: _441  and  _443
REMARK  178  A    between atoms: _443  and  _444
REMARK  179  A    between atoms: _443  and  _446
REMARK  180  A    between atoms: _446  and  _447
REMARK  181  A    between atoms: _452  and  _454
REMARK  182  A    between atoms: _454  and  _455
REMARK  183  A    between atoms: _454  and  _457
REMARK  184  A    between atoms: _457  and  _458
REMARK  185  A    between atoms: _463  and  _464
REMARK  186  A    between atoms: _466  and  _468
REMARK  187  A    between atoms: _468  and  _469
REMARK  188  A    between atoms: _468  and  _471
REMARK  189  A    between atoms: _471  and  _472
REMARK  190  A    between atoms: _472  and  _473
REMARK  191  A    between atoms: _473  and  _474
REMARK  192  A    between atoms: _474  and  _475
REMARK  193  A    between atoms: _479  and  _481
REMARK  194  A    between atoms: _481  and  _482
REMARK  195  A    between atoms: _481  and  _484
REMARK  196  A    between atoms: _484  and  _485
REMARK  197  A    between atoms: _487  and  _489
REMARK  198  A    between atoms: _489  and  _490
REMARK  199  A    between atoms: _489  and  _492
REMARK  200  A    between atoms: _492  and  _493
REMARK  201  A    between atoms: _496  and  _498
REMARK  202  A    between atoms: _498  and  _499
REMARK  203  A    between atoms: _498  and  _501
REMARK  204  A    between atoms: _501  and  _502
REMARK  205  A    between atoms: _502  and  _503
REMARK  206  A    between atoms: _506  and  _508
REMARK  207  A    between atoms: _508  and  _509
REMARK  208  A    between atoms: _512  and  _514
REMARK  209  A    between atoms: _514  and  _515
REMARK  210  A    between atoms: _514  and  _517
REMARK  211  A    between atoms: _517  and  _518
REMARK  212  A    between atoms: _520  and  _522
REMARK  213  A    between atoms: _522  and  _523
REMARK  214  A    between atoms: _525  and  _527
REMARK  215  A    between atoms: _527  and  _528
REMARK  216  A    between atoms: _527  and  _530
REMARK  217  A    between atoms: _530  and  _531
REMARK  218  A    between atoms: _534  and  _536
REMARK  219  A    between atoms: _536  and  _537
REMARK  220  A    between atoms: _539  and  _541
REMARK  221  A    between atoms: _541  and  _542
REMARK  222  A    between atoms: _541  and  _544
REMARK  223  A    between atoms: _544  and  _545
REMARK  224  A    between atoms: _550  and  _552
REMARK  225  A    between atoms: _552  and  _553
REMARK  226  A    between atoms: _552  and  _555
REMARK  227  A    between atoms: _555  and  _556
REMARK  228  A    between atoms: _556  and  _557
REMARK  229  A    between atoms: _564  and  _565
REMARK  230  A    between atoms: _565  and  _581
REMARK  231  A    between atoms: _566  and  _568
REMARK  232  A    between atoms: _568  and  _569
REMARK  233  A    between atoms: _569  and  _570
REMARK  234  A    between atoms: _574  and  _576
REMARK  235  A    between atoms: _576  and  _577
REMARK  236  A    between atoms: _576  and  _584
REMARK  237  A    between atoms: _577  and  _578
REMARK  238  A    between atoms: _578  and  _579
REMARK  239  A    between atoms: _579  and  _580
REMARK  240  A    between atoms: _580  and  _581
REMARK  241  A    between atoms: _586  and  _588
REMARK  242  A    between atoms: _588  and  _589
REMARK  243  A    between atoms: _588  and  _591
REMARK  244  A    between atoms: _591  and  _592
REMARK  245  A    between atoms: _595  and  _597
REMARK  246  A    between atoms: _597  and  _598
REMARK  247  A    between atoms: _600  and  _602
REMARK  248  A    between atoms: _602  and  _603
REMARK  249  A    between atoms: _606  and  _608
REMARK  250  A    between atoms: _608  and  _609
REMARK  251  A    between atoms: _608  and  _611
REMARK  252  A    between atoms: _611  and  _612
REMARK  253  A    between atoms: _617  and  _618
REMARK                            x       y       z     vdW  Elec       q    Type
REMARK                         _______ _______ _______ _____ _____    ______ ____
ROOT
ATOM      1  O   HOH     1      29.721  25.850  28.950  0.00  0.00    +0.000 OA
ENDROOT
TORSDOF 0
REMARK  Name = ../refined-set-2016/3g2h/3g2h_pocket.pdb
REMARK  253 active torsions:
REMARK  status: ('A' for Active; 'I' for Inactive)
REMARK    1  A    between atoms: _1  and  _3
REMARK    2  A    between atoms: _3  and  _4
REMARK    3  A    between atoms: _3  and  _6
REMARK    4  A    between atoms: _6  and  _7
REMARK    5  A    between atoms: _12  and  _13
REMARK    6  A    between atoms: _15  and  _17
REMARK    7  A    between atoms: _17  and  _18
REMARK    8  A    between atoms: _17  and  _20
REMARK    9  A    between atoms: _20  and  _21
REMARK   10  A    between atoms: _21  and  _22
REMARK   11  A    between atoms: _25  and  _27
REMARK   12  A    between atoms: _27  and  _28
REMARK   13  A    between atoms: _27  and  _30
REMARK   14  A    between atoms: _30  and  _31
REMARK   15  A    between atoms: _36  and  _38
REMARK   16  A    between atoms: _38  and  _39
REMARK   17  A    between atoms: _41  and  _43
REMARK   18  A    between atoms: _43  and  _44
REMARK   19  A    between atoms: _46  and  _48
REMARK   20  A    between atoms: _48  and  _49
REMARK   21  A    between atoms: _48  and  _51
REMARK   22  A    between atoms: _51  and  _52
REMARK   23  A    between atoms: _55  and  _57
REMARK   24  A    between atoms: _57  and  _58
REMARK   25  A    between atoms: _60  and  _62
REMARK   26  A    between atoms: _62  and  _63
REMARK   27  A    between atoms: _62  and  _65
REMARK   28  A    between atoms: _65  and  _66
REMARK   29  A    between atoms: _66  and  _67
REMARK   30  A    between atoms: _67  and  _68
REMARK   31  A    between atoms: _77  and  _79
REMARK   32  A    between atoms: _79  and  _80
REMARK   33  A    between atoms: _79  and  _82
REMARK   34  A    between atoms: _82  and  _83
REMARK   35  A    between atoms: _86  and  _88
REMARK   36  A    between atoms: _88  and  _89
REMARK   37  A    between atoms: _92  and  _94
REMARK   38  A    between atoms: _94  and  _95
REMARK   39  A    between atoms: _94  and  _97
REMARK   40  A    between atoms: _97  and  _98
REMARK   41  A    between atoms: _104  and  _106
REMARK   42  A    between atoms: _106  and  _107
REMARK   43  A    between atoms: _106  and  _109
REMARK   44  A    between atoms: _109  and  _110
REMARK   45  A    between atoms: _115  and  _117
REMARK   46  A    between atoms: _117  and  _118
REMARK   47  A    between atoms: _117  and  _120
REMARK   48  A    between atoms: _120  and  _121
REMARK   49  A    between atoms: _124  and  _126
REMARK   50  A    between atoms: _126  and  _127
REMARK   51  A    between atoms: _126  and  _129
REMARK   52  A    between atoms: _129  and  _130
REMARK   53  A    between atoms: _135  and  _137
REMARK   54  A    between atoms: _137  and  _138
REMARK   55  A    between atoms: _137  and  _140
REMARK   56  A    between atoms: _140  and  _141
REMARK   57  A    between atoms: _147  and  _149
REMARK   58  A    between atoms: _149  and  _150
REMARK   59  A    between atoms: _149  and  _152
REMARK   60  A    between atoms: _152  and  _153
REMARK   61  A    between atoms: _159  and  _161
REMARK   62  A    between atoms: _161  and  _162
REMARK   63  A    between atoms: _161  and  _164
REMARK   64  A    between atoms: _164  and  _165
REMARK   65  A    between atoms: _165  and  _166
REMARK   66  A    between atoms: _169  and  _171
REMARK   67  A    between atoms: _171  and  _172
REMARK   68  A    between atoms: _171  and  _174
REMARK   69  A    between atoms: _174  and  _175
REMARK   70  A    between atoms: _175  and  _176
REMARK   71  A    between atoms: _176  and  _177
REMARK   72  A    between atoms: _186  and  _188
REMARK   73  A    between atoms: _188  and  _189
REMARK   74  A    between atoms: _188  and  _191
REMARK   75  A    between atoms: _191  and  _192
REMARK   76  A    between atoms: _197  and  _199
REMARK   77  A    between atoms: _199  and  _200
REMARK   78  A    between atoms: _199  and  _202
REMARK   79  A    between atoms: _202  and  _203
REMARK   80  A    between atoms: _206  and  _208
REMARK   81  A    between atoms: _208  and  _209
REMARK   82  A    between atoms: _208  and  _211
REMARK   83  A    between atoms: _211  and  _212
REMARK   84  A    between atoms: _215  and  _217
REMARK   85  A    between atoms: _217  and  _218
REMARK   86  A    between atoms: _217  and  _220
REMARK   87  A    between atoms: _220  and  _221
REMARK   88  A    between atoms: _226  and  _228
REMARK   89  A    between atoms: _228  and  _229
REMARK   90  A    between atoms: _228  and  _231
REMARK   91  A    between atoms: _231  and  _232
REMARK   92  A    between atoms: _237  and  _238
REMARK   93  A    between atoms: _240  and  _242
REMARK   94  A    between atoms: _242  and  _243
REMARK   95  A    between atoms: _242  and  _245
REMARK   96  A    between atoms: _245  and  _246
REMARK   97  A    between atoms: _249  and  _251
REMARK   98  A    between atoms: _251  and  _252
REMARK   99  A    between atoms: _251  and  _254
REMARK  100  A    between atoms: _254  and  _255
REMARK  101  A    between atoms: _260  and  _262
REMARK  102  A    between atoms: _262  and  _263
REMARK  103  A    between atoms: _262  and  _265
REMARK  104  A    between atoms: _265  and  _266
REMARK  105  A    between atoms: _271  and  _273
REMARK  106  A    between atoms: _273  and  _274
REMARK  107  A    between atoms: _273  and  _276
REMARK  108  A    between atoms: _276  and  _277
REMARK  109  A    between atoms: _280  and  _282
REMARK  110  A    between atoms: _282  and  _283
REMARK  111  A    between atoms: _282  and  _285
REMARK  112  A    between atoms: _288  and  _290
REMARK  113  A    between atoms: _290  and  _291
REMARK  114  A    between atoms: _290  and  _293
REMARK  115  A    between atoms: _293  and  _294
REMARK  116  A    between atoms: _297  and  _299
REMARK  117  A    between atoms: _299  and  _300
REMARK  118  A    between atoms: _299  and  _302
REMARK  119  A    between atoms: _302  and  _303
REMARK  120  A    between atoms: _303  and  _304
REMARK  121  A    between atoms: _307  and  _309
REMARK  122  A    between atoms: _309  and  _310
REMARK  123  A    between atoms: _313  and  _315
REMARK  124  A    between atoms: _315  and  _316
REMARK  125  A    between atoms: _315  and  _318
REMARK  126  A    between atoms: _318  and  _319
REMARK  127  A    between atoms: _322  and  _324
REMARK  128  A    between atoms: _324  and  _325
REMARK  129  A    between atoms: _324  and  _327
REMARK  130  A    between atoms: _327  and  _328
REMARK  131  A    between atoms: _328  and  _329
REMARK  132  A    between atoms: _332  and  _334
REMARK  133  A    between atoms: _334  and  _335
REMARK  134  A    between atoms: _334  and  _337
REMARK  135  A    between atoms: _337  and  _338
REMARK  136  A    between atoms: _343  and  _345
REMARK  137  A    between atoms: _345  and  _346
REMARK  138  A    between atoms: _348  and  _350
REMARK  139  A    between atoms: _350  and  _351
REMARK  140  A    between atoms: _350  and  _353
REMARK  141  A    between atoms: _356  and  _358
REMARK  142  A    between atoms: _358  and  _359
REMARK  143  A    between atoms: _362  and  _364
REMARK  144  A    between atoms: _364  and  _365
REMARK  145  A    between atoms: _364  and  _367
REMARK  146  A    between atoms: _367  and  _368
REMARK  147  A    between atoms: _373  and  _375
REMARK  148  A    between atoms: _375  and  _376
REMARK  149  A    between atoms: _375  and  _378
REMARK  150  A    between atoms: _378  and  _379
REMARK  151  A    between atoms: _379  and  _380
REMARK  152  A    between atoms: _380  and  _381
REMARK  153  A    between atoms: _381  and  _382
REMARK  154  A    between atoms: _386  and  _388
REMARK  155  A    between atoms: _388  and  _389
REMARK  156  A    between atoms: _388  and  _391
REMARK  157  A    between atoms: _391  and  _392
REMARK  158  A    between atoms: _395  and  _397
REMARK  159  A    between atoms: _397  and  _398
REMARK  160  A    between atoms: _397  and  _400
REMARK  161  A    between atoms: _400  and  _401
REMARK  162  A    between atoms: _406  and  _408
REMARK  163  A    between atoms: _408  and  _409
REMARK  164  A    between atoms: _411  and  _413
REMARK  165  A    between atoms: _413  and  _414
REMARK  166  A    between atoms: _413  and  _416
REMARK  167  A    between atoms: _416  and  _417
REMARK  168  A    between atoms: _417  and  _418
REMARK  169  A    between atoms: _418  and  _419
REMARK  170  A    between atoms: _419  and  _420
REMARK  171  A    between atoms: _424  and  _426
REMARK  172  A    between atoms: _426  and  _427
REMARK  173  A    between atoms: _426  and  _429
REMARK  174  A    between atoms: _429  and  _430
REMARK  175  A    between atoms: _430  and  _431
REMARK  176  A    between atoms: _431  and  _432
REMARK  177  A    between atoms: _441  and  _443
REMARK  178  A    between atoms: _443  and  _444
REMARK  179  A    between atoms: _443  and  _446
REMARK  180  A    between atoms: _446  and  _447
REMARK  181  A    between atoms: _452  and  _454
REMARK  182  A    between atoms: _454  and  _455
REMARK  183  A    between atoms: _454  and  _457
REMARK  184  A    between atoms: _457  and  _458
REMARK  185  A    between atoms: _463  and  _464
REMARK  186  A    between atoms: _466  and  _468
REMARK  187  A    between atoms: _468  and  _469
REMARK  188  A    between atoms: _468  and  _471
REMARK  189  A    between atoms: _471  and  _472
REMARK  190  A    between atoms: _472  and  _473
REMARK  191  A    between atoms: _473  and  _474
REMARK  192  A    between atoms: _474  and  _475
REMARK  193  A    between atoms: _479  and  _481
REMARK  194  A    between atoms: _481  and  _482
REMARK  195  A    between atoms: _481  and  _484
REMARK  196  A    between atoms: _484  and  _485
REMARK  197  A    between atoms: _487  and  _489
REMARK  198  A    between atoms: _489  and  _490
REMARK  199  A    between atoms: _489  and  _492
REMARK  200  A    between atoms: _492  and  _493
REMARK  201  A    between atoms: _496  and  _498
REMARK  202  A    between atoms: _498  and  _499
REMARK  203  A    between atoms: _498  and  _501
REMARK  204  A    between atoms: _501  and  _502
REMARK  205  A    between atoms: _502  and  _503
REMARK  206  A    between atoms: _506  and  _508
REMARK  207  A    between atoms: _508  and  _509
REMARK  208  A    between atoms: _512  and  _514
REMARK  209  A    between atoms: _514  and  _515
REMARK  210  A    between atoms: _514  and  _517
REMARK  211  A    between atoms: _517  and  _518
REMARK  212  A    between atoms: _520  and  _522
REMARK  213  A    between atoms: _522  and  _523
REMARK  214  A    between atoms: _525  and  _527
REMARK  215  A    between atoms: _527  and  _528
REMARK  216  A    between atoms: _527  and  _530
REMARK  217  A    between atoms: _530  and  _531
REMARK  218  A    between atoms: _534  and  _536
REMARK  219  A    between atoms: _536  and  _537
REMARK  220  A    between atoms: _539  and  _541
REMARK  221  A    between atoms: _541  and  _542
REMARK  222  A    between atoms: _541  and  _544
REMARK  223  A    between atoms: _544  and  _545
REMARK  224  A    between atoms: _550  and  _552
REMARK  225  A    between atoms: _552  and  _553
REMARK  226  A    between atoms: _552  and  _555
REMARK  227  A    between atoms: _555  and  _556
REMARK  228  A    between atoms: _556  and  _557
REMARK  229  A    between atoms: _564  and  _565
REMARK  230  A    between atoms: _565  and  _581
REMARK  231  A    between atoms: _566  and  _568
REMARK  232  A    between atoms: _568  and  _569
REMARK  233  A    between atoms: _569  and  _570
REMARK  234  A    between atoms: _574  and  _576
REMARK  235  A    between atoms: _576  and  _577
REMARK  236  A    between atoms: _576  and  _584
REMARK  237  A    between atoms: _577  and  _578
REMARK  238  A    between atoms: _578  and  _579
REMARK  239  A    between atoms: _579  and  _580
REMARK  240  A    between atoms: _580  and  _581
REMARK  241  A    between atoms: _586  and  _588
REMARK  242  A    between atoms: _588  and  _589
REMARK  243  A    between atoms: _588  and  _591
REMARK  244  A    between atoms: _591  and  _592
REMARK  245  A    between atoms: _595  and  _597
REMARK  246  A    between atoms: _597  and  _598
REMARK  247  A    between atoms: _600  and  _602
REMARK  248  A    between atoms: _602  and  _603
REMARK  249  A    between atoms: _606  and  _608
REMARK  250  A    between atoms: _608  and  _609
REMARK  251  A    between atoms: _608  and  _611
REMARK  252  A    between atoms: _611  and  _612
REMARK  253  A    between atoms: _617  and  _618
REMARK                            x       y       z     vdW  Elec       q    Type
REMARK                         _______ _______ _______ _____ _____    ______ ____
ROOT
ATOM      1  O   HOH     1      27.696  27.110  27.478  0.00  0.00    +0.000 OA
ENDROOT
TORSDOF 0
REMARK  Name = ../refined-set-2016/3g2h/3g2h_pocket.pdb
REMARK  253 active torsions:
REMARK  status: ('A' for Active; 'I' for Inactive)
REMARK    1  A    between atoms: _1  and  _3
REMARK    2  A    between atoms: _3  and  _4
REMARK    3  A    between atoms: _3  and  _6
REMARK    4  A    between atoms: _6  and  _7
REMARK    5  A    between atoms: _12  and  _13
REMARK    6  A    between atoms: _15  and  _17
REMARK    7  A    between atoms: _17  and  _18
REMARK    8  A    between atoms: _17  and  _20
REMARK    9  A    between atoms: _20  and  _21
REMARK   10  A    between atoms: _21  and  _22
REMARK   11  A    between atoms: _25  and  _27
REMARK   12  A    between atoms: _27  and  _28
REMARK   13  A    between atoms: _27  and  _30
REMARK   14  A    between atoms: _30  and  _31
REMARK   15  A    between atoms: _36  and  _38
REMARK   16  A    between atoms: _38  and  _39
REMARK   17  A    between atoms: _41  and  _43
REMARK   18  A    between atoms: _43  and  _44
REMARK   19  A    between atoms: _46  and  _48
REMARK   20  A    between atoms: _48  and  _49
REMARK   21  A    between atoms: _48  and  _51
REMARK   22  A    between atoms: _51  and  _52
REMARK   23  A    between atoms: _55  and  _57
REMARK   24  A    between atoms: _57  and  _58
REMARK   25  A    between atoms: _60  and  _62
REMARK   26  A    between atoms: _62  and  _63
REMARK   27  A    between atoms: _62  and  _65
REMARK   28  A    between atoms: _65  and  _66
REMARK   29  A    between atoms: _66  and  _67
REMARK   30  A    between atoms: _67  and  _68
REMARK   31  A    between atoms: _77  and  _79
REMARK   32  A    between atoms: _79  and  _80
REMARK   33  A    between atoms: _79  and  _82
REMARK   34  A    between atoms: _82  and  _83
REMARK   35  A    between atoms: _86  and  _88
REMARK   36  A    between atoms: _88  and  _89
REMARK   37  A    between atoms: _92  and  _94
REMARK   38  A    between atoms: _94  and  _95
REMARK   39  A    between atoms: _94  and  _97
REMARK   40  A    between atoms: _97  and  _98
REMARK   41  A    between atoms: _104  and  _106
REMARK   42  A    between atoms: _106  and  _107
REMARK   43  A    between atoms: _106  and  _109
REMARK   44  A    between atoms: _109  and  _110
REMARK   45  A    between atoms: _115  and  _117
REMARK   46  A    between atoms: _117  and  _118
REMARK   47  A    between atoms: _117  and  _120
REMARK   48  A    between atoms: _120  and  _121
REMARK   49  A    between atoms: _124  and  _126
REMARK   50  A    between atoms: _126  and  _127
REMARK   51  A    between atoms: _126  and  _129
REMARK   52  A    between atoms: _129  and  _130
REMARK   53  A    between atoms: _135  and  _137
REMARK   54  A    between atoms: _137  and  _138
REMARK   55  A    between atoms: _137  and  _140
REMARK   56  A    between atoms: _140  and  _141
REMARK   57  A    between atoms: _147  and  _149
REMARK   58  A    between atoms: _149  and  _150
REMARK   59  A    between atoms: _149  and  _152
REMARK   60  A    between atoms: _152  and  _153
REMARK   61  A    between atoms: _159  and  _161
REMARK   62  A    between atoms: _161  and  _162
REMARK   63  A    between atoms: _161  and  _164
REMARK   64  A    between atoms: _164  and  _165
REMARK   65  A    between atoms: _165  and  _166
REMARK   66  A    between atoms: _169  and  _171
REMARK   67  A    between atoms: _171  and  _172
REMARK   68  A    between atoms: _171  and  _174
REMARK   69  A    between atoms: _174  and  _175
REMARK   70  A    between atoms: _175  and  _176
REMARK   71  A    between atoms: _176  and  _177
REMARK   72  A    between atoms: _186  and  _188
REMARK   73  A    between atoms: _188  and  _189
REMARK   74  A    between atoms: _188  and  _191
REMARK   75  A    between atoms: _191  and  _192
REMARK   76  A    between atoms: _197  and  _199
REMARK   77  A    between atoms: _199  and  _200
REMARK   78  A    between atoms: _199  and  _202
REMARK   79  A    between atoms: _202  and  _203
REMARK   80  A    between atoms: _206  and  _208
REMARK   81  A    between atoms: _208  and  _209
REMARK   82  A    between atoms: _208  and  _211
REMARK   83  A    between atoms: _211  and  _212
REMARK   84  A    between atoms: _215  and  _217
REMARK   85  A    between atoms: _217  and  _218
REMARK   86  A    between atoms: _217  and  _220
REMARK   87  A    between atoms: _220  and  _221
REMARK   88  A    between atoms: _226  and  _228
REMARK   89  A    between atoms: _228  and  _229
REMARK   90  A    between atoms: _228  and  _231
REMARK   91  A    between atoms: _231  and  _232
REMARK   92  A    between atoms: _237  and  _238
REMARK   93  A    between atoms: _240  and  _242
REMARK   94  A    between atoms: _242  and  _243
REMARK   95  A    between atoms: _242  and  _245
REMARK   96  A    between atoms: _245  and  _246
REMARK   97  A    between atoms: _249  and  _251
REMARK   98  A    between atoms: _251  and  _252
REMARK   99  A    between atoms: _251  and  _254
REMARK  100  A    between atoms: _254  and  _255
REMARK  101  A    between atoms: _260  and  _262
REMARK  102  A    between atoms: _262  and  _263
REMARK  103  A    between atoms: _262  and  _265
REMARK  104  A    between atoms: _265  and  _266
REMARK  105  A    between atoms: _271  and  _273
REMARK  106  A    between atoms: _273  and  _274
REMARK  107  A    between atoms: _273  and  _276
REMARK  108  A    between atoms: _276  and  _277
REMARK  109  A    between atoms: _280  and  _282
REMARK  110  A    between atoms: _282  and  _283
REMARK  111  A    between atoms: _282  and  _285
REMARK  112  A    between atoms: _288  and  _290
REMARK  113  A    between atoms: _290  and  _291
REMARK  114  A    between atoms: _290  and  _293
REMARK  115  A    between atoms: _293  and  _294
REMARK  116  A    between atoms: _297  and  _299
REMARK  117  A    between atoms: _299  and  _300
REMARK  118  A    between atoms: _299  and  _302
REMARK  119  A    between atoms: _302  and  _303
REMARK  120  A    between atoms: _303  and  _304
REMARK  121  A    between atoms: _307  and  _309
REMARK  122  A    between atoms: _309  and  _310
REMARK  123  A    between atoms: _313  and  _315
REMARK  124  A    between atoms: _315  and  _316
REMARK  125  A    between atoms: _315  and  _318
REMARK  126  A    between atoms: _318  and  _319
REMARK  127  A    between atoms: _322  and  _324
REMARK  128  A    between atoms: _324  and  _325
REMARK  129  A    between atoms: _324  and  _327
REMARK  130  A    between atoms: _327  and  _328
REMARK  131  A    between atoms: _328  and  _329
REMARK  132  A    between atoms: _332  and  _334
REMARK  133  A    between atoms: _334  and  _335
REMARK  134  A    between atoms: _334  and  _337
REMARK  135  A    between atoms: _337  and  _338
REMARK  136  A    between atoms: _343  and  _345
REMARK  137  A    between atoms: _345  and  _346
REMARK  138  A    between atoms: _348  and  _350
REMARK  139  A    between atoms: _350  and  _351
REMARK  140  A    between atoms: _350  and  _353
REMARK  141  A    between atoms: _356  and  _358
REMARK  142  A    between atoms: _358  and  _359
REMARK  143  A    between atoms: _362  and  _364
REMARK  144  A    between atoms: _364  and  _365
REMARK  145  A    between atoms: _364  and  _367
REMARK  146  A    between atoms: _367  and  _368
REMARK  147  A    between atoms: _373  and  _375
REMARK  148  A    between atoms: _375  and  _376
REMARK  149  A    between atoms: _375  and  _378
REMARK  150  A    between atoms: _378  and  _379
REMARK  151  A    between atoms: _379  and  _380
REMARK  152  A    between atoms: _380  and  _381
REMARK  153  A    between atoms: _381  and  _382
REMARK  154  A    between atoms: _386  and  _388
REMARK  155  A    between atoms: _388  and  _389
REMARK  156  A    between atoms: _388  and  _391
REMARK  157  A    between atoms: _391  and  _392
REMARK  158  A    between atoms: _395  and  _397
REMARK  159  A    between atoms: _397  and  _398
REMARK  160  A    between atoms: _397  and  _400
REMARK  161  A    between atoms: _400  and  _401
REMARK  162  A    between atoms: _406  and  _408
REMARK  163  A    between atoms: _408  and  _409
REMARK  164  A    between atoms: _411  and  _413
REMARK  165  A    between atoms: _413  and  _414
REMARK  166  A    between atoms: _413  and  _416
REMARK  167  A    between atoms: _416  and  _417
REMARK  168  A    between atoms: _417  and  _418
REMARK  169  A    between atoms: _418  and  _419
REMARK  170  A    between atoms: _419  and  _420
REMARK  171  A    between atoms: _424  and  _426
REMARK  172  A    between atoms: _426  and  _427
REMARK  173  A    between atoms: _426  and  _429
REMARK  174  A    between atoms: _429  and  _430
REMARK  175  A    between atoms: _430  and  _431
REMARK  176  A    between atoms: _431  and  _432
REMARK  177  A    between atoms: _441  and  _443
REMARK  178  A    between atoms: _443  and  _444
REMARK  179  A    between atoms: _443  and  _446
REMARK  180  A    between atoms: _446  and  _447
REMARK  181  A    between atoms: _452  and  _454
REMARK  182  A    between atoms: _454  and  _455
REMARK  183  A    between atoms: _454  and  _457
REMARK  184  A    between atoms: _457  and  _458
REMARK  185  A    between atoms: _463  and  _464
REMARK  186  A    between atoms: _466  and  _468
REMARK  187  A    between atoms: _468  and  _469
REMARK  188  A    between atoms: _468  and  _471
REMARK  189  A    between atoms: _471  and  _472
REMARK  190  A    between atoms: _472  and  _473
REMARK  191  A    between atoms: _473  and  _474
REMARK  192  A    between atoms: _474  and  _475
REMARK  193  A    between atoms: _479  and  _481
REMARK  194  A    between atoms: _481  and  _482
REMARK  195  A    between atoms: _481  and  _484
REMARK  196  A    between atoms: _484  and  _485
REMARK  197  A    between atoms: _487  and  _489
REMARK  198  A    between atoms: _489  and  _490
REMARK  199  A    between atoms: _489  and  _492
REMARK  200  A    between atoms: _492  and  _493
REMARK  201  A    between atoms: _496  and  _498
REMARK  202  A    between atoms: _498  and  _499
REMARK  203  A    between atoms: _498  and  _501
REMARK  204  A    between atoms: _501  and  _502
REMARK  205  A    between atoms: _502  and  _503
REMARK  206  A    between atoms: _506  and  _508
REMARK  207  A    between atoms: _508  and  _509
REMARK  208  A    between atoms: _512  and  _514
REMARK  209  A    between atoms: _514  and  _515
REMARK  210  A    between atoms: _514  and  _517
REMARK  211  A    between atoms: _517  and  _518
REMARK  212  A    between atoms: _520  and  _522
REMARK  213  A    between atoms: _522  and  _523
REMARK  214  A    between atoms: _525  and  _527
REMARK  215  A    between atoms: _527  and  _528
REMARK  216  A    between atoms: _527  and  _530
REMARK  217  A    between atoms: _530  and  _531
REMARK  218  A    between atoms: _534  and  _536
REMARK  219  A    between atoms: _536  and  _537
REMARK  220  A    between atoms: _539  and  _541
REMARK  221  A    between atoms: _541  and  _542
REMARK  222  A    between atoms: _541  and  _544
REMARK  223  A    between atoms: _544  and  _545
REMARK  224  A    between atoms: _550  and  _552
REMARK  225  A    between atoms: _552  and  _553
REMARK  226  A    between atoms: _552  and  _555
REMARK  227  A    between atoms: _555  and  _556
REMARK  228  A    between atoms: _556  and  _557
REMARK  229  A    between atoms: _564  and  _565
REMARK  230  A    between atoms: _565  and  _581
REMARK  231  A    between atoms: _566  and  _568
REMARK  232  A    between atoms: _568  and  _569
REMARK  233  A    between atoms: _569  and  _570
REMARK  234  A    between atoms: _574  and  _576
REMARK  235  A    between atoms: _576  and  _577
REMARK  236  A    between atoms: _576  and  _584
REMARK  237  A    between atoms: _577  and  _578
REMARK  238  A    between atoms: _578  and  _579
REMARK  239  A    between atoms: _579  and  _580
REMARK  240  A    between atoms: _580  and  _581
REMARK  241  A    between atoms: _586  and  _588
REMARK  242  A    between atoms: _588  and  _589
REMARK  243  A    between atoms: _588  and  _591
REMARK  244  A    between atoms: _591  and  _592
REMARK  245  A    between atoms: _595  and  _597
REMARK  246  A    between atoms: _597  and  _598
REMARK  247  A    between atoms: _600  and  _602
REMARK  248  A    between atoms: _602  and  _603
REMARK  249  A    between atoms: _606  and  _608
REMARK  250  A    between atoms: _608  and  _609
REMARK  251  A    between atoms: _608  and  _611
REMARK  252  A    between atoms: _611  and  _612
REMARK  253  A    between atoms: _617  and  _618
REMARK                            x       y       z     vdW  Elec       q    Type
REMARK                         _______ _______ _______ _____ _____    ______ ____
ROOT
ATOM      1  O   HOH     1      26.450  23.248  21.519  0.00  0.00    +0.000 OA
ENDROOT
TORSDOF 0
REMARK  Name = ../refined-set-2016/3g2h/3g2h_pocket.pdb
REMARK  253 active torsions:
REMARK  status: ('A' for Active; 'I' for Inactive)
REMARK    1  A    between atoms: _1  and  _3
REMARK    2  A    between atoms: _3  and  _4
REMARK    3  A    between atoms: _3  and  _6
REMARK    4  A    between atoms: _6  and  _7
REMARK    5  A    between atoms: _12  and  _13
REMARK    6  A    between atoms: _15  and  _17
REMARK    7  A    between atoms: _17  and  _18
REMARK    8  A    between atoms: _17  and  _20
REMARK    9  A    between atoms: _20  and  _21
REMARK   10  A    between atoms: _21  and  _22
REMARK   11  A    between atoms: _25  and  _27
REMARK   12  A    between atoms: _27  and  _28
REMARK   13  A    between atoms: _27  and  _30
REMARK   14  A    between atoms: _30  and  _31
REMARK   15  A    between atoms: _36  and  _38
REMARK   16  A    between atoms: _38  and  _39
REMARK   17  A    between atoms: _41  and  _43
REMARK   18  A    between atoms: _43  and  _44
REMARK   19  A    between atoms: _46  and  _48
REMARK   20  A    between atoms: _48  and  _49
REMARK   21  A    between atoms: _48  and  _51
REMARK   22  A    between atoms: _51  and  _52
REMARK   23  A    between atoms: _55  and  _57
REMARK   24  A    between atoms: _57  and  _58
REMARK   25  A    between atoms: _60  and  _62
REMARK   26  A    between atoms: _62  and  _63
REMARK   27  A    between atoms: _62  and  _65
REMARK   28  A    between atoms: _65  and  _66
REMARK   29  A    between atoms: _66  and  _67
REMARK   30  A    between atoms: _67  and  _68
REMARK   31  A    between atoms: _77  and  _79
REMARK   32  A    between atoms: _79  and  _80
REMARK   33  A    between atoms: _79  and  _82
REMARK   34  A    between atoms: _82  and  _83
REMARK   35  A    between atoms: _86  and  _88
REMARK   36  A    between atoms: _88  and  _89
REMARK   37  A    between atoms: _92  and  _94
REMARK   38  A    between atoms: _94  and  _95
REMARK   39  A    between atoms: _94  and  _97
REMARK   40  A    between atoms: _97  and  _98
REMARK   41  A    between atoms: _104  and  _106
REMARK   42  A    between atoms: _106  and  _107
REMARK   43  A    between atoms: _106  and  _109
REMARK   44  A    between atoms: _109  and  _110
REMARK   45  A    between atoms: _115  and  _117
REMARK   46  A    between atoms: _117  and  _118
REMARK   47  A    between atoms: _117  and  _120
REMARK   48  A    between atoms: _120  and  _121
REMARK   49  A    between atoms: _124  and  _126
REMARK   50  A    between atoms: _126  and  _127
REMARK   51  A    between atoms: _126  and  _129
REMARK   52  A    between atoms: _129  and  _130
REMARK   53  A    between atoms: _135  and  _137
REMARK   54  A    between atoms: _137  and  _138
REMARK   55  A    between atoms: _137  and  _140
REMARK   56  A    between atoms: _140  and  _141
REMARK   57  A    between atoms: _147  and  _149
REMARK   58  A    between atoms: _149  and  _150
REMARK   59  A    between atoms: _149  and  _152
REMARK   60  A    between atoms: _152  and  _153
REMARK   61  A    between atoms: _159  and  _161
REMARK   62  A    between atoms: _161  and  _162
REMARK   63  A    between atoms: _161  and  _164
REMARK   64  A    between atoms: _164  and  _165
REMARK   65  A    between atoms: _165  and  _166
REMARK   66  A    between atoms: _169  and  _171
REMARK   67  A    between atoms: _171  and  _172
REMARK   68  A    between atoms: _171  and  _174
REMARK   69  A    between atoms: _174  and  _175
REMARK   70  A    between atoms: _175  and  _176
REMARK   71  A    between atoms: _176  and  _177
REMARK   72  A    between atoms: _186  and  _188
REMARK   73  A    between atoms: _188  and  _189
REMARK   74  A    between atoms: _188  and  _191
REMARK   75  A    between atoms: _191  and  _192
REMARK   76  A    between atoms: _197  and  _199
REMARK   77  A    between atoms: _199  and  _200
REMARK   78  A    between atoms: _199  and  _202
REMARK   79  A    between atoms: _202  and  _203
REMARK   80  A    between atoms: _206  and  _208
REMARK   81  A    between atoms: _208  and  _209
REMARK   82  A    between atoms: _208  and  _211
REMARK   83  A    between atoms: _211  and  _212
REMARK   84  A    between atoms: _215  and  _217
REMARK   85  A    between atoms: _217  and  _218
REMARK   86  A    between atoms: _217  and  _220
REMARK   87  A    between atoms: _220  and  _221
REMARK   88  A    between atoms: _226  and  _228
REMARK   89  A    between atoms: _228  and  _229
REMARK   90  A    between atoms: _228  and  _231
REMARK   91  A    between atoms: _231  and  _232
REMARK   92  A    between atoms: _237  and  _238
REMARK   93  A    between atoms: _240  and  _242
REMARK   94  A    between atoms: _242  and  _243
REMARK   95  A    between atoms: _242  and  _245
REMARK   96  A    between atoms: _245  and  _246
REMARK   97  A    between atoms: _249  and  _251
REMARK   98  A    between atoms: _251  and  _252
REMARK   99  A    between atoms: _251  and  _254
REMARK  100  A    between atoms: _254  and  _255
REMARK  101  A    between atoms: _260  and  _262
REMARK  102  A    between atoms: _262  and  _263
REMARK  103  A    between atoms: _262  and  _265
REMARK  104  A    between atoms: _265  and  _266
REMARK  105  A    between atoms: _271  and  _273
REMARK  106  A    between atoms: _273  and  _274
REMARK  107  A    between atoms: _273  and  _276
REMARK  108  A    between atoms: _276  and  _277
REMARK  109  A    between atoms: _280  and  _282
REMARK  110  A    between atoms: _282  and  _283
REMARK  111  A    between atoms: _282  and  _285
REMARK  112  A    between atoms: _288  and  _290
REMARK  113  A    between atoms: _290  and  _291
REMARK  114  A    between atoms: _290  and  _293
REMARK  115  A    between atoms: _293  and  _294
REMARK  116  A    between atoms: _297  and  _299
REMARK  117  A    between atoms: _299  and  _300
REMARK  118  A    between atoms: _299  and  _302
REMARK  119  A    between atoms: _302  and  _303
REMARK  120  A    between atoms: _303  and  _304
REMARK  121  A    between atoms: _307  and  _309
REMARK  122  A    between atoms: _309  and  _310
REMARK  123  A    between atoms: _313  and  _315
REMARK  124  A    between atoms: _315  and  _316
REMARK  125  A    between atoms: _315  and  _318
REMARK  126  A    between atoms: _318  and  _319
REMARK  127  A    between atoms: _322  and  _324
REMARK  128  A    between atoms: _324  and  _325
REMARK  129  A    between atoms: _324  and  _327
REMARK  130  A    between atoms: _327  and  _328
REMARK  131  A    between atoms: _328  and  _329
REMARK  132  A    between atoms: _332  and  _334
REMARK  133  A    between atoms: _334  and  _335
REMARK  134  A    between atoms: _334  and  _337
REMARK  135  A    between atoms: _337  and  _338
REMARK  136  A    between atoms: _343  and  _345
REMARK  137  A    between atoms: _345  and  _346
REMARK  138  A    between atoms: _348  and  _350
REMARK  139  A    between atoms: _350  and  _351
REMARK  140  A    between atoms: _350  and  _353
REMARK  141  A    between atoms: _356  and  _358
REMARK  142  A    between atoms: _358  and  _359
REMARK  143  A    between atoms: _362  and  _364
REMARK  144  A    between atoms: _364  and  _365
REMARK  145  A    between atoms: _364  and  _367
REMARK  146  A    between atoms: _367  and  _368
REMARK  147  A    between atoms: _373  and  _375
REMARK  148  A    between atoms: _375  and  _376
REMARK  149  A    between atoms: _375  and  _378
REMARK  150  A    between atoms: _378  and  _379
REMARK  151  A    between atoms: _379  and  _380
REMARK  152  A    between atoms: _380  and  _381
REMARK  153  A    between atoms: _381  and  _382
REMARK  154  A    between atoms: _386  and  _388
REMARK  155  A    between atoms: _388  and  _389
REMARK  156  A    between atoms: _388  and  _391
REMARK  157  A    between atoms: _391  and  _392
REMARK  158  A    between atoms: _395  and  _397
REMARK  159  A    between atoms: _397  and  _398
REMARK  160  A    between atoms: _397  and  _400
REMARK  161  A    between atoms: _400  and  _401
REMARK  162  A    between atoms: _406  and  _408
REMARK  163  A    between atoms: _408  and  _409
REMARK  164  A    between atoms: _411  and  _413
REMARK  165  A    between atoms: _413  and  _414
REMARK  166  A    between atoms: _413  and  _416
REMARK  167  A    between atoms: _416  and  _417
REMARK  168  A    between atoms: _417  and  _418
REMARK  169  A    between atoms: _418  and  _419
REMARK  170  A    between atoms: _419  and  _420
REMARK  171  A    between atoms: _424  and  _426
REMARK  172  A    between atoms: _426  and  _427
REMARK  173  A    between atoms: _426  and  _429
REMARK  174  A    between atoms: _429  and  _430
REMARK  175  A    between atoms: _430  and  _431
REMARK  176  A    between atoms: _431  and  _432
REMARK  177  A    between atoms: _441  and  _443
REMARK  178  A    between atoms: _443  and  _444
REMARK  179  A    between atoms: _443  and  _446
REMARK  180  A    between atoms: _446  and  _447
REMARK  181  A    between atoms: _452  and  _454
REMARK  182  A    between atoms: _454  and  _455
REMARK  183  A    between atoms: _454  and  _457
REMARK  184  A    between atoms: _457  and  _458
REMARK  185  A    between atoms: _463  and  _464
REMARK  186  A    between atoms: _466  and  _468
REMARK  187  A    between atoms: _468  and  _469
REMARK  188  A    between atoms: _468  and  _471
REMARK  189  A    between atoms: _471  and  _472
REMARK  190  A    between atoms: _472  and  _473
REMARK  191  A    between atoms: _473  and  _474
REMARK  192  A    between atoms: _474  and  _475
REMARK  193  A    between atoms: _479  and  _481
REMARK  194  A    between atoms: _481  and  _482
REMARK  195  A    between atoms: _481  and  _484
REMARK  196  A    between atoms: _484  and  _485
REMARK  197  A    between atoms: _487  and  _489
REMARK  198  A    between atoms: _489  and  _490
REMARK  199  A    between atoms: _489  and  _492
REMARK  200  A    between atoms: _492  and  _493
REMARK  201  A    between atoms: _496  and  _498
REMARK  202  A    between atoms: _498  and  _499
REMARK  203  A    between atoms: _498  and  _501
REMARK  204  A    between atoms: _501  and  _502
REMARK  205  A    between atoms: _502  and  _503
REMARK  206  A    between atoms: _506  and  _508
REMARK  207  A    between atoms: _508  and  _509
REMARK  208  A    between atoms: _512  and  _514
REMARK  209  A    between atoms: _514  and  _515
REMARK  210  A    between atoms: _514  and  _517
REMARK  211  A    between atoms: _517  and  _518
REMARK  212  A    between atoms: _520  and  _522
REMARK  213  A    between atoms: _522  and  _523
REMARK  214  A    between atoms: _525  and  _527
REMARK  215  A    between atoms: _527  and  _528
REMARK  216  A    between atoms: _527  and  _530
REMARK  217  A    between atoms: _530  and  _531
REMARK  218  A    between atoms: _534  and  _536
REMARK  219  A    between atoms: _536  and  _537
REMARK  220  A    between atoms: _539  and  _541
REMARK  221  A    between atoms: _541  and  _542
REMARK  222  A    between atoms: _541  and  _544
REMARK  223  A    between atoms: _544  and  _545
REMARK  224  A    between atoms: _550  and  _552
REMARK  225  A    between atoms: _552  and  _553
REMARK  226  A    between atoms: _552  and  _555
REMARK  227  A    between atoms: _555  and  _556
REMARK  228  A    between atoms: _556  and  _557
REMARK  229  A    between atoms: _564  and  _565
REMARK  230  A    between atoms: _565  and  _581
REMARK  231  A    between atoms: _566  and  _568
REMARK  232  A    between atoms: _568  and  _569
REMARK  233  A    between atoms: _569  and  _570
REMARK  234  A    between atoms: _574  and  _576
REMARK  235  A    between atoms: _576  and  _577
REMARK  236  A    between atoms: _576  and  _584
REMARK  237  A    between atoms: _577  and  _578
REMARK  238  A    between atoms: _578  and  _579
REMARK  239  A    between atoms: _579  and  _580
REMARK  240  A    between atoms: _580  and  _581
REMARK  241  A    between atoms: _586  and  _588
REMARK  242  A    between atoms: _588  and  _589
REMARK  243  A    between atoms: _588  and  _591
REMARK  244  A    between atoms: _591  and  _592
REMARK  245  A    between atoms: _595  and  _597
REMARK  246  A    between atoms: _597  and  _598
REMARK  247  A    between atoms: _600  and  _602
REMARK  248  A    between atoms: _602  and  _603
REMARK  249  A    between atoms: _606  and  _608
REMARK  250  A    between atoms: _608  and  _609
REMARK  251  A    between atoms: _608  and  _611
REMARK  252  A    between atoms: _611  and  _612
REMARK  253  A    between atoms: _617  and  _618
REMARK                            x       y       z     vdW  Elec       q    Type
REMARK                         _______ _______ _______ _____ _____    ______ ____
ROOT
ATOM      1  O   HOH     1      34.771  12.759  30.784  0.00  0.00    +0.000 OA
ENDROOT
TORSDOF 0
REMARK  Name = ../refined-set-2016/3g2h/3g2h_pocket.pdb
REMARK  253 active torsions:
REMARK  status: ('A' for Active; 'I' for Inactive)
REMARK    1  A    between atoms: _1  and  _3
REMARK    2  A    between atoms: _3  and  _4
REMARK    3  A    between atoms: _3  and  _6
REMARK    4  A    between atoms: _6  and  _7
REMARK    5  A    between atoms: _12  and  _13
REMARK    6  A    between atoms: _15  and  _17
REMARK    7  A    between atoms: _17  and  _18
REMARK    8  A    between atoms: _17  and  _20
REMARK    9  A    between atoms: _20  and  _21
REMARK   10  A    between atoms: _21  and  _22
REMARK   11  A    between atoms: _25  and  _27
REMARK   12  A    between atoms: _27  and  _28
REMARK   13  A    between atoms: _27  and  _30
REMARK   14  A    between atoms: _30  and  _31
REMARK   15  A    between atoms: _36  and  _38
REMARK   16  A    between atoms: _38  and  _39
REMARK   17  A    between atoms: _41  and  _43
REMARK   18  A    between atoms: _43  and  _44
REMARK   19  A    between atoms: _46  and  _48
REMARK   20  A    between atoms: _48  and  _49
REMARK   21  A    between atoms: _48  and  _51
REMARK   22  A    between atoms: _51  and  _52
REMARK   23  A    between atoms: _55  and  _57
REMARK   24  A    between atoms: _57  and  _58
REMARK   25  A    between atoms: _60  and  _62
REMARK   26  A    between atoms: _62  and  _63
REMARK   27  A    between atoms: _62  and  _65
REMARK   28  A    between atoms: _65  and  _66
REMARK   29  A    between atoms: _66  and  _67
REMARK   30  A    between atoms: _67  and  _68
REMARK   31  A    between atoms: _77  and  _79
REMARK   32  A    between atoms: _79  and  _80
REMARK   33  A    between atoms: _79  and  _82
REMARK   34  A    between atoms: _82  and  _83
REMARK   35  A    between atoms: _86  and  _88
REMARK   36  A    between atoms: _88  and  _89
REMARK   37  A    between atoms: _92  and  _94
REMARK   38  A    between atoms: _94  and  _95
REMARK   39  A    between atoms: _94  and  _97
REMARK   40  A    between atoms: _97  and  _98
REMARK   41  A    between atoms: _104  and  _106
REMARK   42  A    between atoms: _106  and  _107
REMARK   43  A    between atoms: _106  and  _109
REMARK   44  A    between atoms: _109  and  _110
REMARK   45  A    between atoms: _115  and  _117
REMARK   46  A    between atoms: _117  and  _118
REMARK   47  A    between atoms: _117  and  _120
REMARK   48  A    between atoms: _120  and  _121
REMARK   49  A    between atoms: _124  and  _126
REMARK   50  A    between atoms: _126  and  _127
REMARK   51  A    between atoms: _126  and  _129
REMARK   52  A    between atoms: _129  and  _130
REMARK   53  A    between atoms: _135  and  _137
REMARK   54  A    between atoms: _137  and  _138
REMARK   55  A    between atoms: _137  and  _140
REMARK   56  A    between atoms: _140  and  _141
REMARK   57  A    between atoms: _147  and  _149
REMARK   58  A    between atoms: _149  and  _150
REMARK   59  A    between atoms: _149  and  _152
REMARK   60  A    between atoms: _152  and  _153
REMARK   61  A    between atoms: _159  and  _161
REMARK   62  A    between atoms: _161  and  _162
REMARK   63  A    between atoms: _161  and  _164
REMARK   64  A    between atoms: _164  and  _165
REMARK   65  A    between atoms: _165  and  _166
REMARK   66  A    between atoms: _169  and  _171
REMARK   67  A    between atoms: _171  and  _172
REMARK   68  A    between atoms: _171  and  _174
REMARK   69  A    between atoms: _174  and  _175
REMARK   70  A    between atoms: _175  and  _176
REMARK   71  A    between atoms: _176  and  _177
REMARK   72  A    between atoms: _186  and  _188
REMARK   73  A    between atoms: _188  and  _189
REMARK   74  A    between atoms: _188  and  _191
REMARK   75  A    between atoms: _191  and  _192
REMARK   76  A    between atoms: _197  and  _199
REMARK   77  A    between atoms: _199  and  _200
REMARK   78  A    between atoms: _199  and  _202
REMARK   79  A    between atoms: _202  and  _203
REMARK   80  A    between atoms: _206  and  _208
REMARK   81  A    between atoms: _208  and  _209
REMARK   82  A    between atoms: _208  and  _211
REMARK   83  A    between atoms: _211  and  _212
REMARK   84  A    between atoms: _215  and  _217
REMARK   85  A    between atoms: _217  and  _218
REMARK   86  A    between atoms: _217  and  _220
REMARK   87  A    between atoms: _220  and  _221
REMARK   88  A    between atoms: _226  and  _228
REMARK   89  A    between atoms: _228  and  _229
REMARK   90  A    between atoms: _228  and  _231
REMARK   91  A    between atoms: _231  and  _232
REMARK   92  A    between atoms: _237  and  _238
REMARK   93  A    between atoms: _240  and  _242
REMARK   94  A    between atoms: _242  and  _243
REMARK   95  A    between atoms: _242  and  _245
REMARK   96  A    between atoms: _245  and  _246
REMARK   97  A    between atoms: _249  and  _251
REMARK   98  A    between atoms: _251  and  _252
REMARK   99  A    between atoms: _251  and  _254
REMARK  100  A    between atoms: _254  and  _255
REMARK  101  A    between atoms: _260  and  _262
REMARK  102  A    between atoms: _262  and  _263
REMARK  103  A    between atoms: _262  and  _265
REMARK  104  A    between atoms: _265  and  _266
REMARK  105  A    between atoms: _271  and  _273
REMARK  106  A    between atoms: _273  and  _274
REMARK  107  A    between atoms: _273  and  _276
REMARK  108  A    between atoms: _276  and  _277
REMARK  109  A    between atoms: _280  and  _282
REMARK  110  A    between atoms: _282  and  _283
REMARK  111  A    between atoms: _282  and  _285
REMARK  112  A    between atoms: _288  and  _290
REMARK  113  A    between atoms: _290  and  _291
REMARK  114  A    between atoms: _290  and  _293
REMARK  115  A    between atoms: _293  and  _294
REMARK  116  A    between atoms: _297  and  _299
REMARK  117  A    between atoms: _299  and  _300
REMARK  118  A    between atoms: _299  and  _302
REMARK  119  A    between atoms: _302  and  _303
REMARK  120  A    between atoms: _303  and  _304
REMARK  121  A    between atoms: _307  and  _309
REMARK  122  A    between atoms: _309  and  _310
REMARK  123  A    between atoms: _313  and  _315
REMARK  124  A    between atoms: _315  and  _316
REMARK  125  A    between atoms: _315  and  _318
REMARK  126  A    between atoms: _318  and  _319
REMARK  127  A    between atoms: _322  and  _324
REMARK  128  A    between atoms: _324  and  _325
REMARK  129  A    between atoms: _324  and  _327
REMARK  130  A    between atoms: _327  and  _328
REMARK  131  A    between atoms: _328  and  _329
REMARK  132  A    between atoms: _332  and  _334
REMARK  133  A    between atoms: _334  and  _335
REMARK  134  A    between atoms: _334  and  _337
REMARK  135  A    between atoms: _337  and  _338
REMARK  136  A    between atoms: _343  and  _345
REMARK  137  A    between atoms: _345  and  _346
REMARK  138  A    between atoms: _348  and  _350
REMARK  139  A    between atoms: _350  and  _351
REMARK  140  A    between atoms: _350  and  _353
REMARK  141  A    between atoms: _356  and  _358
REMARK  142  A    between atoms: _358  and  _359
REMARK  143  A    between atoms: _362  and  _364
REMARK  144  A    between atoms: _364  and  _365
REMARK  145  A    between atoms: _364  and  _367
REMARK  146  A    between atoms: _367  and  _368
REMARK  147  A    between atoms: _373  and  _375
REMARK  148  A    between atoms: _375  and  _376
REMARK  149  A    between atoms: _375  and  _378
REMARK  150  A    between atoms: _378  and  _379
REMARK  151  A    between atoms: _379  and  _380
REMARK  152  A    between atoms: _380  and  _381
REMARK  153  A    between atoms: _381  and  _382
REMARK  154  A    between atoms: _386  and  _388
REMARK  155  A    between atoms: _388  and  _389
REMARK  156  A    between atoms: _388  and  _391
REMARK  157  A    between atoms: _391  and  _392
REMARK  158  A    between atoms: _395  and  _397
REMARK  159  A    between atoms: _397  and  _398
REMARK  160  A    between atoms: _397  and  _400
REMARK  161  A    between atoms: _400  and  _401
REMARK  162  A    between atoms: _406  and  _408
REMARK  163  A    between atoms: _408  and  _409
REMARK  164  A    between atoms: _411  and  _413
REMARK  165  A    between atoms: _413  and  _414
REMARK  166  A    between atoms: _413  and  _416
REMARK  167  A    between atoms: _416  and  _417
REMARK  168  A    between atoms: _417  and  _418
REMARK  169  A    between atoms: _418  and  _419
REMARK  170  A    between atoms: _419  and  _420
REMARK  171  A    between atoms: _424  and  _426
REMARK  172  A    between atoms: _426  and  _427
REMARK  173  A    between atoms: _426  and  _429
REMARK  174  A    between atoms: _429  and  _430
REMARK  175  A    between atoms: _430  and  _431
REMARK  176  A    between atoms: _431  and  _432
REMARK  177  A    between atoms: _441  and  _443
REMARK  178  A    between atoms: _443  and  _444
REMARK  179  A    between atoms: _443  and  _446
REMARK  180  A    between atoms: _446  and  _447
REMARK  181  A    between atoms: _452  and  _454
REMARK  182  A    between atoms: _454  and  _455
REMARK  183  A    between atoms: _454  and  _457
REMARK  184  A    between atoms: _457  and  _458
REMARK  185  A    between atoms: _463  and  _464
REMARK  186  A    between atoms: _466  and  _468
REMARK  187  A    between atoms: _468  and  _469
REMARK  188  A    between atoms: _468  and  _471
REMARK  189  A    between atoms: _471  and  _472
REMARK  190  A    between atoms: _472  and  _473
REMARK  191  A    between atoms: _473  and  _474
REMARK  192  A    between atoms: _474  and  _475
REMARK  193  A    between atoms: _479  and  _481
REMARK  194  A    between atoms: _481  and  _482
REMARK  195  A    between atoms: _481  and  _484
REMARK  196  A    between atoms: _484  and  _485
REMARK  197  A    between atoms: _487  and  _489
REMARK  198  A    between atoms: _489  and  _490
REMARK  199  A    between atoms: _489  and  _492
REMARK  200  A    between atoms: _492  and  _493
REMARK  201  A    between atoms: _496  and  _498
REMARK  202  A    between atoms: _498  and  _499
REMARK  203  A    between atoms: _498  and  _501
REMARK  204  A    between atoms: _501  and  _502
REMARK  205  A    between atoms: _502  and  _503
REMARK  206  A    between atoms: _506  and  _508
REMARK  207  A    between atoms: _508  and  _509
REMARK  208  A    between atoms: _512  and  _514
REMARK  209  A    between atoms: _514  and  _515
REMARK  210  A    between atoms: _514  and  _517
REMARK  211  A    between atoms: _517  and  _518
REMARK  212  A    between atoms: _520  and  _522
REMARK  213  A    between atoms: _522  and  _523
REMARK  214  A    between atoms: _525  and  _527
REMARK  215  A    between atoms: _527  and  _528
REMARK  216  A    between atoms: _527  and  _530
REMARK  217  A    between atoms: _530  and  _531
REMARK  218  A    between atoms: _534  and  _536
REMARK  219  A    between atoms: _536  and  _537
REMARK  220  A    between atoms: _539  and  _541
REMARK  221  A    between atoms: _541  and  _542
REMARK  222  A    between atoms: _541  and  _544
REMARK  223  A    between atoms: _544  and  _545
REMARK  224  A    between atoms: _550  and  _552
REMARK  225  A    between atoms: _552  and  _553
REMARK  226  A    between atoms: _552  and  _555
REMARK  227  A    between atoms: _555  and  _556
REMARK  228  A    between atoms: _556  and  _557
REMARK  229  A    between atoms: _564  and  _565
REMARK  230  A    between atoms: _565  and  _581
REMARK  231  A    between atoms: _566  and  _568
REMARK  232  A    between atoms: _568  and  _569
REMARK  233  A    between atoms: _569  and  _570
REMARK  234  A    between atoms: _574  and  _576
REMARK  235  A    between atoms: _576  and  _577
REMARK  236  A    between atoms: _576  and  _584
REMARK  237  A    between atoms: _577  and  _578
REMARK  238  A    between atoms: _578  and  _579
REMARK  239  A    between atoms: _579  and  _580
REMARK  240  A    between atoms: _580  and  _581
REMARK  241  A    between atoms: _586  and  _588
REMARK  242  A    between atoms: _588  and  _589
REMARK  243  A    between atoms: _588  and  _591
REMARK  244  A    between atoms: _591  and  _592
REMARK  245  A    between atoms: _595  and  _597
REMARK  246  A    between atoms: _597  and  _598
REMARK  247  A    between atoms: _600  and  _602
REMARK  248  A    between atoms: _602  and  _603
REMARK  249  A    between atoms: _606  and  _608
REMARK  250  A    between atoms: _608  and  _609
REMARK  251  A    between atoms: _608  and  _611
REMARK  252  A    between atoms: _611  and  _612
REMARK  253  A    between atoms: _617  and  _618
REMARK                            x       y       z     vdW  Elec       q    Type
REMARK                         _______ _______ _______ _____ _____    ______ ____
ROOT
ATOM      1  O   HOH     1      36.282  19.439  36.796  0.00  0.00    +0.000 OA
ENDROOT
TORSDOF 0
REMARK  Name = ../refined-set-2016/3g2h/3g2h_pocket.pdb
REMARK  253 active torsions:
REMARK  status: ('A' for Active; 'I' for Inactive)
REMARK    1  A    between atoms: _1  and  _3
REMARK    2  A    between atoms: _3  and  _4
REMARK    3  A    between atoms: _3  and  _6
REMARK    4  A    between atoms: _6  and  _7
REMARK    5  A    between atoms: _12  and  _13
REMARK    6  A    between atoms: _15  and  _17
REMARK    7  A    between atoms: _17  and  _18
REMARK    8  A    between atoms: _17  and  _20
REMARK    9  A    between atoms: _20  and  _21
REMARK   10  A    between atoms: _21  and  _22
REMARK   11  A    between atoms: _25  and  _27
REMARK   12  A    between atoms: _27  and  _28
REMARK   13  A    between atoms: _27  and  _30
REMARK   14  A    between atoms: _30  and  _31
REMARK   15  A    between atoms: _36  and  _38
REMARK   16  A    between atoms: _38  and  _39
REMARK   17  A    between atoms: _41  and  _43
REMARK   18  A    between atoms: _43  and  _44
REMARK   19  A    between atoms: _46  and  _48
REMARK   20  A    between atoms: _48  and  _49
REMARK   21  A    between atoms: _48  and  _51
REMARK   22  A    between atoms: _51  and  _52
REMARK   23  A    between atoms: _55  and  _57
REMARK   24  A    between atoms: _57  and  _58
REMARK   25  A    between atoms: _60  and  _62
REMARK   26  A    between atoms: _62  and  _63
REMARK   27  A    between atoms: _62  and  _65
REMARK   28  A    between atoms: _65  and  _66
REMARK   29  A    between atoms: _66  and  _67
REMARK   30  A    between atoms: _67  and  _68
REMARK   31  A    between atoms: _77  and  _79
REMARK   32  A    between atoms: _79  and  _80
REMARK   33  A    between atoms: _79  and  _82
REMARK   34  A    between atoms: _82  and  _83
REMARK   35  A    between atoms: _86  and  _88
REMARK   36  A    between atoms: _88  and  _89
REMARK   37  A    between atoms: _92  and  _94
REMARK   38  A    between atoms: _94  and  _95
REMARK   39  A    between atoms: _94  and  _97
REMARK   40  A    between atoms: _97  and  _98
REMARK   41  A    between atoms: _104  and  _106
REMARK   42  A    between atoms: _106  and  _107
REMARK   43  A    between atoms: _106  and  _109
REMARK   44  A    between atoms: _109  and  _110
REMARK   45  A    between atoms: _115  and  _117
REMARK   46  A    between atoms: _117  and  _118
REMARK   47  A    between atoms: _117  and  _120
REMARK   48  A    between atoms: _120  and  _121
REMARK   49  A    between atoms: _124  and  _126
REMARK   50  A    between atoms: _126  and  _127
REMARK   51  A    between atoms: _126  and  _129
REMARK   52  A    between atoms: _129  and  _130
REMARK   53  A    between atoms: _135  and  _137
REMARK   54  A    between atoms: _137  and  _138
REMARK   55  A    between atoms: _137  and  _140
REMARK   56  A    between atoms: _140  and  _141
REMARK   57  A    between atoms: _147  and  _149
REMARK   58  A    between atoms: _149  and  _150
REMARK   59  A    between atoms: _149  and  _152
REMARK   60  A    between atoms: _152  and  _153
REMARK   61  A    between atoms: _159  and  _161
REMARK   62  A    between atoms: _161  and  _162
REMARK   63  A    between atoms: _161  and  _164
REMARK   64  A    between atoms: _164  and  _165
REMARK   65  A    between atoms: _165  and  _166
REMARK   66  A    between atoms: _169  and  _171
REMARK   67  A    between atoms: _171  and  _172
REMARK   68  A    between atoms: _171  and  _174
REMARK   69  A    between atoms: _174  and  _175
REMARK   70  A    between atoms: _175  and  _176
REMARK   71  A    between atoms: _176  and  _177
REMARK   72  A    between atoms: _186  and  _188
REMARK   73  A    between atoms: _188  and  _189
REMARK   74  A    between atoms: _188  and  _191
REMARK   75  A    between atoms: _191  and  _192
REMARK   76  A    between atoms: _197  and  _199
REMARK   77  A    between atoms: _199  and  _200
REMARK   78  A    between atoms: _199  and  _202
REMARK   79  A    between atoms: _202  and  _203
REMARK   80  A    between atoms: _206  and  _208
REMARK   81  A    between atoms: _208  and  _209
REMARK   82  A    between atoms: _208  and  _211
REMARK   83  A    between atoms: _211  and  _212
REMARK   84  A    between atoms: _215  and  _217
REMARK   85  A    between atoms: _217  and  _218
REMARK   86  A    between atoms: _217  and  _220
REMARK   87  A    between atoms: _220  and  _221
REMARK   88  A    between atoms: _226  and  _228
REMARK   89  A    between atoms: _228  and  _229
REMARK   90  A    between atoms: _228  and  _231
REMARK   91  A    between atoms: _231  and  _232
REMARK   92  A    between atoms: _237  and  _238
REMARK   93  A    between atoms: _240  and  _242
REMARK   94  A    between atoms: _242  and  _243
REMARK   95  A    between atoms: _242  and  _245
REMARK   96  A    between atoms: _245  and  _246
REMARK   97  A    between atoms: _249  and  _251
REMARK   98  A    between atoms: _251  and  _252
REMARK   99  A    between atoms: _251  and  _254
REMARK  100  A    between atoms: _254  and  _255
REMARK  101  A    between atoms: _260  and  _262
REMARK  102  A    between atoms: _262  and  _263
REMARK  103  A    between atoms: _262  and  _265
REMARK  104  A    between atoms: _265  and  _266
REMARK  105  A    between atoms: _271  and  _273
REMARK  106  A    between atoms: _273  and  _274
REMARK  107  A    between atoms: _273  and  _276
REMARK  108  A    between atoms: _276  and  _277
REMARK  109  A    between atoms: _280  and  _282
REMARK  110  A    between atoms: _282  and  _283
REMARK  111  A    between atoms: _282  and  _285
REMARK  112  A    between atoms: _288  and  _290
REMARK  113  A    between atoms: _290  and  _291
REMARK  114  A    between atoms: _290  and  _293
REMARK  115  A    between atoms: _293  and  _294
REMARK  116  A    between atoms: _297  and  _299
REMARK  117  A    between atoms: _299  and  _300
REMARK  118  A    between atoms: _299  and  _302
REMARK  119  A    between atoms: _302  and  _303
REMARK  120  A    between atoms: _303  and  _304
REMARK  121  A    between atoms: _307  and  _309
REMARK  122  A    between atoms: _309  and  _310
REMARK  123  A    between atoms: _313  and  _315
REMARK  124  A    between atoms: _315  and  _316
REMARK  125  A    between atoms: _315  and  _318
REMARK  126  A    between atoms: _318  and  _319
REMARK  127  A    between atoms: _322  and  _324
REMARK  128  A    between atoms: _324  and  _325
REMARK  129  A    between atoms: _324  and  _327
REMARK  130  A    between atoms: _327  and  _328
REMARK  131  A    between atoms: _328  and  _329
REMARK  132  A    between atoms: _332  and  _334
REMARK  133  A    between atoms: _334  and  _335
REMARK  134  A    between atoms: _334  and  _337
REMARK  135  A    between atoms: _337  and  _338
REMARK  136  A    between atoms: _343  and  _345
REMARK  137  A    between atoms: _345  and  _346
REMARK  138  A    between atoms: _348  and  _350
REMARK  139  A    between atoms: _350  and  _351
REMARK  140  A    between atoms: _350  and  _353
REMARK  141  A    between atoms: _356  and  _358
REMARK  142  A    between atoms: _358  and  _359
REMARK  143  A    between atoms: _362  and  _364
REMARK  144  A    between atoms: _364  and  _365
REMARK  145  A    between atoms: _364  and  _367
REMARK  146  A    between atoms: _367  and  _368
REMARK  147  A    between atoms: _373  and  _375
REMARK  148  A    between atoms: _375  and  _376
REMARK  149  A    between atoms: _375  and  _378
REMARK  150  A    between atoms: _378  and  _379
REMARK  151  A    between atoms: _379  and  _380
REMARK  152  A    between atoms: _380  and  _381
REMARK  153  A    between atoms: _381  and  _382
REMARK  154  A    between atoms: _386  and  _388
REMARK  155  A    between atoms: _388  and  _389
REMARK  156  A    between atoms: _388  and  _391
REMARK  157  A    between atoms: _391  and  _392
REMARK  158  A    between atoms: _395  and  _397
REMARK  159  A    between atoms: _397  and  _398
REMARK  160  A    between atoms: _397  and  _400
REMARK  161  A    between atoms: _400  and  _401
REMARK  162  A    between atoms: _406  and  _408
REMARK  163  A    between atoms: _408  and  _409
REMARK  164  A    between atoms: _411  and  _413
REMARK  165  A    between atoms: _413  and  _414
REMARK  166  A    between atoms: _413  and  _416
REMARK  167  A    between atoms: _416  and  _417
REMARK  168  A    between atoms: _417  and  _418
REMARK  169  A    between atoms: _418  and  _419
REMARK  170  A    between atoms: _419  and  _420
REMARK  171  A    between atoms: _424  and  _426
REMARK  172  A    between atoms: _426  and  _427
REMARK  173  A    between atoms: _426  and  _429
REMARK  174  A    between atoms: _429  and  _430
REMARK  175  A    between atoms: _430  and  _431
REMARK  176  A    between atoms: _431  and  _432
REMARK  177  A    between atoms: _441  and  _443
REMARK  178  A    between atoms: _443  and  _444
REMARK  179  A    between atoms: _443  and  _446
REMARK  180  A    between atoms: _446  and  _447
REMARK  181  A    between atoms: _452  and  _454
REMARK  182  A    between atoms: _454  and  _455
REMARK  183  A    between atoms: _454  and  _457
REMARK  184  A    between atoms: _457  and  _458
REMARK  185  A    between atoms: _463  and  _464
REMARK  186  A    between atoms: _466  and  _468
REMARK  187  A    between atoms: _468  and  _469
REMARK  188  A    between atoms: _468  and  _471
REMARK  189  A    between atoms: _471  and  _472
REMARK  190  A    between atoms: _472  and  _473
REMARK  191  A    between atoms: _473  and  _474
REMARK  192  A    between atoms: _474  and  _475
REMARK  193  A    between atoms: _479  and  _481
REMARK  194  A    between atoms: _481  and  _482
REMARK  195  A    between atoms: _481  and  _484
REMARK  196  A    between atoms: _484  and  _485
REMARK  197  A    between atoms: _487  and  _489
REMARK  198  A    between atoms: _489  and  _490
REMARK  199  A    between atoms: _489  and  _492
REMARK  200  A    between atoms: _492  and  _493
REMARK  201  A    between atoms: _496  and  _498
REMARK  202  A    between atoms: _498  and  _499
REMARK  203  A    between atoms: _498  and  _501
REMARK  204  A    between atoms: _501  and  _502
REMARK  205  A    between atoms: _502  and  _503
REMARK  206  A    between atoms: _506  and  _508
REMARK  207  A    between atoms: _508  and  _509
REMARK  208  A    between atoms: _512  and  _514
REMARK  209  A    between atoms: _514  and  _515
REMARK  210  A    between atoms: _514  and  _517
REMARK  211  A    between atoms: _517  and  _518
REMARK  212  A    between atoms: _520  and  _522
REMARK  213  A    between atoms: _522  and  _523
REMARK  214  A    between atoms: _525  and  _527
REMARK  215  A    between atoms: _527  and  _528
REMARK  216  A    between atoms: _527  and  _530
REMARK  217  A    between atoms: _530  and  _531
REMARK  218  A    between atoms: _534  and  _536
REMARK  219  A    between atoms: _536  and  _537
REMARK  220  A    between atoms: _539  and  _541
REMARK  221  A    between atoms: _541  and  _542
REMARK  222  A    between atoms: _541  and  _544
REMARK  223  A    between atoms: _544  and  _545
REMARK  224  A    between atoms: _550  and  _552
REMARK  225  A    between atoms: _552  and  _553
REMARK  226  A    between atoms: _552  and  _555
REMARK  227  A    between atoms: _555  and  _556
REMARK  228  A    between atoms: _556  and  _557
REMARK  229  A    between atoms: _564  and  _565
REMARK  230  A    between atoms: _565  and  _581
REMARK  231  A    between atoms: _566  and  _568
REMARK  232  A    between atoms: _568  and  _569
REMARK  233  A    between atoms: _569  and  _570
REMARK  234  A    between atoms: _574  and  _576
REMARK  235  A    between atoms: _576  and  _577
REMARK  236  A    between atoms: _576  and  _584
REMARK  237  A    between atoms: _577  and  _578
REMARK  238  A    between atoms: _578  and  _579
REMARK  239  A    between atoms: _579  and  _580
REMARK  240  A    between atoms: _580  and  _581
REMARK  241  A    between atoms: _586  and  _588
REMARK  242  A    between atoms: _588  and  _589
REMARK  243  A    between atoms: _588  and  _591
REMARK  244  A    between atoms: _591  and  _592
REMARK  245  A    between atoms: _595  and  _597
REMARK  246  A    between atoms: _597  and  _598
REMARK  247  A    between atoms: _600  and  _602
REMARK  248  A    between atoms: _602  and  _603
REMARK  249  A    between atoms: _606  and  _608
REMARK  250  A    between atoms: _608  and  _609
REMARK  251  A    between atoms: _608  and  _611
REMARK  252  A    between atoms: _611  and  _612
REMARK  253  A    between atoms: _617  and  _618
REMARK                            x       y       z     vdW  Elec       q    Type
REMARK                         _______ _______ _______ _____ _____    ______ ____
ROOT
ATOM      1  O   HOH     1      30.822  23.761  33.262  0.00  0.00    +0.000 OA
ENDROOT
TORSDOF 0
REMARK  Name = ../refined-set-2016/3g2h/3g2h_pocket.pdb
REMARK  253 active torsions:
REMARK  status: ('A' for Active; 'I' for Inactive)
REMARK    1  A    between atoms: _1  and  _3
REMARK    2  A    between atoms: _3  and  _4
REMARK    3  A    between atoms: _3  and  _6
REMARK    4  A    between atoms: _6  and  _7
REMARK    5  A    between atoms: _12  and  _13
REMARK    6  A    between atoms: _15  and  _17
REMARK    7  A    between atoms: _17  and  _18
REMARK    8  A    between atoms: _17  and  _20
REMARK    9  A    between atoms: _20  and  _21
REMARK   10  A    between atoms: _21  and  _22
REMARK   11  A    between atoms: _25  and  _27
REMARK   12  A    between atoms: _27  and  _28
REMARK   13  A    between atoms: _27  and  _30
REMARK   14  A    between atoms: _30  and  _31
REMARK   15  A    between atoms: _36  and  _38
REMARK   16  A    between atoms: _38  and  _39
REMARK   17  A    between atoms: _41  and  _43
REMARK   18  A    between atoms: _43  and  _44
REMARK   19  A    between atoms: _46  and  _48
REMARK   20  A    between atoms: _48  and  _49
REMARK   21  A    between atoms: _48  and  _51
REMARK   22  A    between atoms: _51  and  _52
REMARK   23  A    between atoms: _55  and  _57
REMARK   24  A    between atoms: _57  and  _58
REMARK   25  A    between atoms: _60  and  _62
REMARK   26  A    between atoms: _62  and  _63
REMARK   27  A    between atoms: _62  and  _65
REMARK   28  A    between atoms: _65  and  _66
REMARK   29  A    between atoms: _66  and  _67
REMARK   30  A    between atoms: _67  and  _68
REMARK   31  A    between atoms: _77  and  _79
REMARK   32  A    between atoms: _79  and  _80
REMARK   33  A    between atoms: _79  and  _82
REMARK   34  A    between atoms: _82  and  _83
REMARK   35  A    between atoms: _86  and  _88
REMARK   36  A    between atoms: _88  and  _89
REMARK   37  A    between atoms: _92  and  _94
REMARK   38  A    between atoms: _94  and  _95
REMARK   39  A    between atoms: _94  and  _97
REMARK   40  A    between atoms: _97  and  _98
REMARK   41  A    between atoms: _104  and  _106
REMARK   42  A    between atoms: _106  and  _107
REMARK   43  A    between atoms: _106  and  _109
REMARK   44  A    between atoms: _109  and  _110
REMARK   45  A    between atoms: _115  and  _117
REMARK   46  A    between atoms: _117  and  _118
REMARK   47  A    between atoms: _117  and  _120
REMARK   48  A    between atoms: _120  and  _121
REMARK   49  A    between atoms: _124  and  _126
REMARK   50  A    between atoms: _126  and  _127
REMARK   51  A    between atoms: _126  and  _129
REMARK   52  A    between atoms: _129  and  _130
REMARK   53  A    between atoms: _135  and  _137
REMARK   54  A    between atoms: _137  and  _138
REMARK   55  A    between atoms: _137  and  _140
REMARK   56  A    between atoms: _140  and  _141
REMARK   57  A    between atoms: _147  and  _149
REMARK   58  A    between atoms: _149  and  _150
REMARK   59  A    between atoms: _149  and  _152
REMARK   60  A    between atoms: _152  and  _153
REMARK   61  A    between atoms: _159  and  _161
REMARK   62  A    between atoms: _161  and  _162
REMARK   63  A    between atoms: _161  and  _164
REMARK   64  A    between atoms: _164  and  _165
REMARK   65  A    between atoms: _165  and  _166
REMARK   66  A    between atoms: _169  and  _171
REMARK   67  A    between atoms: _171  and  _172
REMARK   68  A    between atoms: _171  and  _174
REMARK   69  A    between atoms: _174  and  _175
REMARK   70  A    between atoms: _175  and  _176
REMARK   71  A    between atoms: _176  and  _177
REMARK   72  A    between atoms: _186  and  _188
REMARK   73  A    between atoms: _188  and  _189
REMARK   74  A    between atoms: _188  and  _191
REMARK   75  A    between atoms: _191  and  _192
REMARK   76  A    between atoms: _197  and  _199
REMARK   77  A    between atoms: _199  and  _200
REMARK   78  A    between atoms: _199  and  _202
REMARK   79  A    between atoms: _202  and  _203
REMARK   80  A    between atoms: _206  and  _208
REMARK   81  A    between atoms: _208  and  _209
REMARK   82  A    between atoms: _208  and  _211
REMARK   83  A    between atoms: _211  and  _212
REMARK   84  A    between atoms: _215  and  _217
REMARK   85  A    between atoms: _217  and  _218
REMARK   86  A    between atoms: _217  and  _220
REMARK   87  A    between atoms: _220  and  _221
REMARK   88  A    between atoms: _226  and  _228
REMARK   89  A    between atoms: _228  and  _229
REMARK   90  A    between atoms: _228  and  _231
REMARK   91  A    between atoms: _231  and  _232
REMARK   92  A    between atoms: _237  and  _238
REMARK   93  A    between atoms: _240  and  _242
REMARK   94  A    between atoms: _242  and  _243
REMARK   95  A    between atoms: _242  and  _245
REMARK   96  A    between atoms: _245  and  _246
REMARK   97  A    between atoms: _249  and  _251
REMARK   98  A    between atoms: _251  and  _252
REMARK   99  A    between atoms: _251  and  _254
REMARK  100  A    between atoms: _254  and  _255
REMARK  101  A    between atoms: _260  and  _262
REMARK  102  A    between atoms: _262  and  _263
REMARK  103  A    between atoms: _262  and  _265
REMARK  104  A    between atoms: _265  and  _266
REMARK  105  A    between atoms: _271  and  _273
REMARK  106  A    between atoms: _273  and  _274
REMARK  107  A    between atoms: _273  and  _276
REMARK  108  A    between atoms: _276  and  _277
REMARK  109  A    between atoms: _280  and  _282
REMARK  110  A    between atoms: _282  and  _283
REMARK  111  A    between atoms: _282  and  _285
REMARK  112  A    between atoms: _288  and  _290
REMARK  113  A    between atoms: _290  and  _291
REMARK  114  A    between atoms: _290  and  _293
REMARK  115  A    between atoms: _293  and  _294
REMARK  116  A    between atoms: _297  and  _299
REMARK  117  A    between atoms: _299  and  _300
REMARK  118  A    between atoms: _299  and  _302
REMARK  119  A    between atoms: _302  and  _303
REMARK  120  A    between atoms: _303  and  _304
REMARK  121  A    between atoms: _307  and  _309
REMARK  122  A    between atoms: _309  and  _310
REMARK  123  A    between atoms: _313  and  _315
REMARK  124  A    between atoms: _315  and  _316
REMARK  125  A    between atoms: _315  and  _318
REMARK  126  A    between atoms: _318  and  _319
REMARK  127  A    between atoms: _322  and  _324
REMARK  128  A    between atoms: _324  and  _325
REMARK  129  A    between atoms: _324  and  _327
REMARK  130  A    between atoms: _327  and  _328
REMARK  131  A    between atoms: _328  and  _329
REMARK  132  A    between atoms: _332  and  _334
REMARK  133  A    between atoms: _334  and  _335
REMARK  134  A    between atoms: _334  and  _337
REMARK  135  A    between atoms: _337  and  _338
REMARK  136  A    between atoms: _343  and  _345
REMARK  137  A    between atoms: _345  and  _346
REMARK  138  A    between atoms: _348  and  _350
REMARK  139  A    between atoms: _350  and  _351
REMARK  140  A    between atoms: _350  and  _353
REMARK  141  A    between atoms: _356  and  _358
REMARK  142  A    between atoms: _358  and  _359
REMARK  143  A    between atoms: _362  and  _364
REMARK  144  A    between atoms: _364  and  _365
REMARK  145  A    between atoms: _364  and  _367
REMARK  146  A    between atoms: _367  and  _368
REMARK  147  A    between atoms: _373  and  _375
REMARK  148  A    between atoms: _375  and  _376
REMARK  149  A    between atoms: _375  and  _378
REMARK  150  A    between atoms: _378  and  _379
REMARK  151  A    between atoms: _379  and  _380
REMARK  152  A    between atoms: _380  and  _381
REMARK  153  A    between atoms: _381  and  _382
REMARK  154  A    between atoms: _386  and  _388
REMARK  155  A    between atoms: _388  and  _389
REMARK  156  A    between atoms: _388  and  _391
REMARK  157  A    between atoms: _391  and  _392
REMARK  158  A    between atoms: _395  and  _397
REMARK  159  A    between atoms: _397  and  _398
REMARK  160  A    between atoms: _397  and  _400
REMARK  161  A    between atoms: _400  and  _401
REMARK  162  A    between atoms: _406  and  _408
REMARK  163  A    between atoms: _408  and  _409
REMARK  164  A    between atoms: _411  and  _413
REMARK  165  A    between atoms: _413  and  _414
REMARK  166  A    between atoms: _413  and  _416
REMARK  167  A    between atoms: _416  and  _417
REMARK  168  A    between atoms: _417  and  _418
REMARK  169  A    between atoms: _418  and  _419
REMARK  170  A    between atoms: _419  and  _420
REMARK  171  A    between atoms: _424  and  _426
REMARK  172  A    between atoms: _426  and  _427
REMARK  173  A    between atoms: _426  and  _429
REMARK  174  A    between atoms: _429  and  _430
REMARK  175  A    between atoms: _430  and  _431
REMARK  176  A    between atoms: _431  and  _432
REMARK  177  A    between atoms: _441  and  _443
REMARK  178  A    between atoms: _443  and  _444
REMARK  179  A    between atoms: _443  and  _446
REMARK  180  A    between atoms: _446  and  _447
REMARK  181  A    between atoms: _452  and  _454
REMARK  182  A    between atoms: _454  and  _455
REMARK  183  A    between atoms: _454  and  _457
REMARK  184  A    between atoms: _457  and  _458
REMARK  185  A    between atoms: _463  and  _464
REMARK  186  A    between atoms: _466  and  _468
REMARK  187  A    between atoms: _468  and  _469
REMARK  188  A    between atoms: _468  and  _471
REMARK  189  A    between atoms: _471  and  _472
REMARK  190  A    between atoms: _472  and  _473
REMARK  191  A    between atoms: _473  and  _474
REMARK  192  A    between atoms: _474  and  _475
REMARK  193  A    between atoms: _479  and  _481
REMARK  194  A    between atoms: _481  and  _482
REMARK  195  A    between atoms: _481  and  _484
REMARK  196  A    between atoms: _484  and  _485
REMARK  197  A    between atoms: _487  and  _489
REMARK  198  A    between atoms: _489  and  _490
REMARK  199  A    between atoms: _489  and  _492
REMARK  200  A    between atoms: _492  and  _493
REMARK  201  A    between atoms: _496  and  _498
REMARK  202  A    between atoms: _498  and  _499
REMARK  203  A    between atoms: _498  and  _501
REMARK  204  A    between atoms: _501  and  _502
REMARK  205  A    between atoms: _502  and  _503
REMARK  206  A    between atoms: _506  and  _508
REMARK  207  A    between atoms: _508  and  _509
REMARK  208  A    between atoms: _512  and  _514
REMARK  209  A    between atoms: _514  and  _515
REMARK  210  A    between atoms: _514  and  _517
REMARK  211  A    between atoms: _517  and  _518
REMARK  212  A    between atoms: _520  and  _522
REMARK  213  A    between atoms: _522  and  _523
REMARK  214  A    between atoms: _525  and  _527
REMARK  215  A    between atoms: _527  and  _528
REMARK  216  A    between atoms: _527  and  _530
REMARK  217  A    between atoms: _530  and  _531
REMARK  218  A    between atoms: _534  and  _536
REMARK  219  A    between atoms: _536  and  _537
REMARK  220  A    between atoms: _539  and  _541
REMARK  221  A    between atoms: _541  and  _542
REMARK  222  A    between atoms: _541  and  _544
REMARK  223  A    between atoms: _544  and  _545
REMARK  224  A    between atoms: _550  and  _552
REMARK  225  A    between atoms: _552  and  _553
REMARK  226  A    between atoms: _552  and  _555
REMARK  227  A    between atoms: _555  and  _556
REMARK  228  A    between atoms: _556  and  _557
REMARK  229  A    between atoms: _564  and  _565
REMARK  230  A    between atoms: _565  and  _581
REMARK  231  A    between atoms: _566  and  _568
REMARK  232  A    between atoms: _568  and  _569
REMARK  233  A    between atoms: _569  and  _570
REMARK  234  A    between atoms: _574  and  _576
REMARK  235  A    between atoms: _576  and  _577
REMARK  236  A    between atoms: _576  and  _584
REMARK  237  A    between atoms: _577  and  _578
REMARK  238  A    between atoms: _578  and  _579
REMARK  239  A    between atoms: _579  and  _580
REMARK  240  A    between atoms: _580  and  _581
REMARK  241  A    between atoms: _586  and  _588
REMARK  242  A    between atoms: _588  and  _589
REMARK  243  A    between atoms: _588  and  _591
REMARK  244  A    between atoms: _591  and  _592
REMARK  245  A    between atoms: _595  and  _597
REMARK  246  A    between atoms: _597  and  _598
REMARK  247  A    between atoms: _600  and  _602
REMARK  248  A    between atoms: _602  and  _603
REMARK  249  A    between atoms: _606  and  _608
REMARK  250  A    between atoms: _608  and  _609
REMARK  251  A    between atoms: _608  and  _611
REMARK  252  A    between atoms: _611  and  _612
REMARK  253  A    between atoms: _617  and  _618
REMARK                            x       y       z     vdW  Elec       q    Type
REMARK                         _______ _______ _______ _____ _____    ______ ____
ROOT
ATOM      1  O   HOH     1      38.202  23.777  22.312  0.00  0.00    +0.000 OA
ENDROOT
TORSDOF 0
REMARK  Name = ../refined-set-2016/3g2h/3g2h_pocket.pdb
REMARK  253 active torsions:
REMARK  status: ('A' for Active; 'I' for Inactive)
REMARK    1  A    between atoms: _1  and  _3
REMARK    2  A    between atoms: _3  and  _4
REMARK    3  A    between atoms: _3  and  _6
REMARK    4  A    between atoms: _6  and  _7
REMARK    5  A    between atoms: _12  and  _13
REMARK    6  A    between atoms: _15  and  _17
REMARK    7  A    between atoms: _17  and  _18
REMARK    8  A    between atoms: _17  and  _20
REMARK    9  A    between atoms: _20  and  _21
REMARK   10  A    between atoms: _21  and  _22
REMARK   11  A    between atoms: _25  and  _27
REMARK   12  A    between atoms: _27  and  _28
REMARK   13  A    between atoms: _27  and  _30
REMARK   14  A    between atoms: _30  and  _31
REMARK   15  A    between atoms: _36  and  _38
REMARK   16  A    between atoms: _38  and  _39
REMARK   17  A    between atoms: _41  and  _43
REMARK   18  A    between atoms: _43  and  _44
REMARK   19  A    between atoms: _46  and  _48
REMARK   20  A    between atoms: _48  and  _49
REMARK   21  A    between atoms: _48  and  _51
REMARK   22  A    between atoms: _51  and  _52
REMARK   23  A    between atoms: _55  and  _57
REMARK   24  A    between atoms: _57  and  _58
REMARK   25  A    between atoms: _60  and  _62
REMARK   26  A    between atoms: _62  and  _63
REMARK   27  A    between atoms: _62  and  _65
REMARK   28  A    between atoms: _65  and  _66
REMARK   29  A    between atoms: _66  and  _67
REMARK   30  A    between atoms: _67  and  _68
REMARK   31  A    between atoms: _77  and  _79
REMARK   32  A    between atoms: _79  and  _80
REMARK   33  A    between atoms: _79  and  _82
REMARK   34  A    between atoms: _82  and  _83
REMARK   35  A    between atoms: _86  and  _88
REMARK   36  A    between atoms: _88  and  _89
REMARK   37  A    between atoms: _92  and  _94
REMARK   38  A    between atoms: _94  and  _95
REMARK   39  A    between atoms: _94  and  _97
REMARK   40  A    between atoms: _97  and  _98
REMARK   41  A    between atoms: _104  and  _106
REMARK   42  A    between atoms: _106  and  _107
REMARK   43  A    between atoms: _106  and  _109
REMARK   44  A    between atoms: _109  and  _110
REMARK   45  A    between atoms: _115  and  _117
REMARK   46  A    between atoms: _117  and  _118
REMARK   47  A    between atoms: _117  and  _120
REMARK   48  A    between atoms: _120  and  _121
REMARK   49  A    between atoms: _124  and  _126
REMARK   50  A    between atoms: _126  and  _127
REMARK   51  A    between atoms: _126  and  _129
REMARK   52  A    between atoms: _129  and  _130
REMARK   53  A    between atoms: _135  and  _137
REMARK   54  A    between atoms: _137  and  _138
REMARK   55  A    between atoms: _137  and  _140
REMARK   56  A    between atoms: _140  and  _141
REMARK   57  A    between atoms: _147  and  _149
REMARK   58  A    between atoms: _149  and  _150
REMARK   59  A    between atoms: _149  and  _152
REMARK   60  A    between atoms: _152  and  _153
REMARK   61  A    between atoms: _159  and  _161
REMARK   62  A    between atoms: _161  and  _162
REMARK   63  A    between atoms: _161  and  _164
REMARK   64  A    between atoms: _164  and  _165
REMARK   65  A    between atoms: _165  and  _166
REMARK   66  A    between atoms: _169  and  _171
REMARK   67  A    between atoms: _171  and  _172
REMARK   68  A    between atoms: _171  and  _174
REMARK   69  A    between atoms: _174  and  _175
REMARK   70  A    between atoms: _175  and  _176
REMARK   71  A    between atoms: _176  and  _177
REMARK   72  A    between atoms: _186  and  _188
REMARK   73  A    between atoms: _188  and  _189
REMARK   74  A    between atoms: _188  and  _191
REMARK   75  A    between atoms: _191  and  _192
REMARK   76  A    between atoms: _197  and  _199
REMARK   77  A    between atoms: _199  and  _200
REMARK   78  A    between atoms: _199  and  _202
REMARK   79  A    between atoms: _202  and  _203
REMARK   80  A    between atoms: _206  and  _208
REMARK   81  A    between atoms: _208  and  _209
REMARK   82  A    between atoms: _208  and  _211
REMARK   83  A    between atoms: _211  and  _212
REMARK   84  A    between atoms: _215  and  _217
REMARK   85  A    between atoms: _217  and  _218
REMARK   86  A    between atoms: _217  and  _220
REMARK   87  A    between atoms: _220  and  _221
REMARK   88  A    between atoms: _226  and  _228
REMARK   89  A    between atoms: _228  and  _229
REMARK   90  A    between atoms: _228  and  _231
REMARK   91  A    between atoms: _231  and  _232
REMARK   92  A    between atoms: _237  and  _238
REMARK   93  A    between atoms: _240  and  _242
REMARK   94  A    between atoms: _242  and  _243
REMARK   95  A    between atoms: _242  and  _245
REMARK   96  A    between atoms: _245  and  _246
REMARK   97  A    between atoms: _249  and  _251
REMARK   98  A    between atoms: _251  and  _252
REMARK   99  A    between atoms: _251  and  _254
REMARK  100  A    between atoms: _254  and  _255
REMARK  101  A    between atoms: _260  and  _262
REMARK  102  A    between atoms: _262  and  _263
REMARK  103  A    between atoms: _262  and  _265
REMARK  104  A    between atoms: _265  and  _266
REMARK  105  A    between atoms: _271  and  _273
REMARK  106  A    between atoms: _273  and  _274
REMARK  107  A    between atoms: _273  and  _276
REMARK  108  A    between atoms: _276  and  _277
REMARK  109  A    between atoms: _280  and  _282
REMARK  110  A    between atoms: _282  and  _283
REMARK  111  A    between atoms: _282  and  _285
REMARK  112  A    between atoms: _288  and  _290
REMARK  113  A    between atoms: _290  and  _291
REMARK  114  A    between atoms: _290  and  _293
REMARK  115  A    between atoms: _293  and  _294
REMARK  116  A    between atoms: _297  and  _299
REMARK  117  A    between atoms: _299  and  _300
REMARK  118  A    between atoms: _299  and  _302
REMARK  119  A    between atoms: _302  and  _303
REMARK  120  A    between atoms: _303  and  _304
REMARK  121  A    between atoms: _307  and  _309
REMARK  122  A    between atoms: _309  and  _310
REMARK  123  A    between atoms: _313  and  _315
REMARK  124  A    between atoms: _315  and  _316
REMARK  125  A    between atoms: _315  and  _318
REMARK  126  A    between atoms: _318  and  _319
REMARK  127  A    between atoms: _322  and  _324
REMARK  128  A    between atoms: _324  and  _325
REMARK  129  A    between atoms: _324  and  _327
REMARK  130  A    between atoms: _327  and  _328
REMARK  131  A    between atoms: _328  and  _329
REMARK  132  A    between atoms: _332  and  _334
REMARK  133  A    between atoms: _334  and  _335
REMARK  134  A    between atoms: _334  and  _337
REMARK  135  A    between atoms: _337  and  _338
REMARK  136  A    between atoms: _343  and  _345
REMARK  137  A    between atoms: _345  and  _346
REMARK  138  A    between atoms: _348  and  _350
REMARK  139  A    between atoms: _350  and  _351
REMARK  140  A    between atoms: _350  and  _353
REMARK  141  A    between atoms: _356  and  _358
REMARK  142  A    between atoms: _358  and  _359
REMARK  143  A    between atoms: _362  and  _364
REMARK  144  A    between atoms: _364  and  _365
REMARK  145  A    between atoms: _364  and  _367
REMARK  146  A    between atoms: _367  and  _368
REMARK  147  A    between atoms: _373  and  _375
REMARK  148  A    between atoms: _375  and  _376
REMARK  149  A    between atoms: _375  and  _378
REMARK  150  A    between atoms: _378  and  _379
REMARK  151  A    between atoms: _379  and  _380
REMARK  152  A    between atoms: _380  and  _381
REMARK  153  A    between atoms: _381  and  _382
REMARK  154  A    between atoms: _386  and  _388
REMARK  155  A    between atoms: _388  and  _389
REMARK  156  A    between atoms: _388  and  _391
REMARK  157  A    between atoms: _391  and  _392
REMARK  158  A    between atoms: _395  and  _397
REMARK  159  A    between atoms: _397  and  _398
REMARK  160  A    between atoms: _397  and  _400
REMARK  161  A    between atoms: _400  and  _401
REMARK  162  A    between atoms: _406  and  _408
REMARK  163  A    between atoms: _408  and  _409
REMARK  164  A    between atoms: _411  and  _413
REMARK  165  A    between atoms: _413  and  _414
REMARK  166  A    between atoms: _413  and  _416
REMARK  167  A    between atoms: _416  and  _417
REMARK  168  A    between atoms: _417  and  _418
REMARK  169  A    between atoms: _418  and  _419
REMARK  170  A    between atoms: _419  and  _420
REMARK  171  A    between atoms: _424  and  _426
REMARK  172  A    between atoms: _426  and  _427
REMARK  173  A    between atoms: _426  and  _429
REMARK  174  A    between atoms: _429  and  _430
REMARK  175  A    between atoms: _430  and  _431
REMARK  176  A    between atoms: _431  and  _432
REMARK  177  A    between atoms: _441  and  _443
REMARK  178  A    between atoms: _443  and  _444
REMARK  179  A    between atoms: _443  and  _446
REMARK  180  A    between atoms: _446  and  _447
REMARK  181  A    between atoms: _452  and  _454
REMARK  182  A    between atoms: _454  and  _455
REMARK  183  A    between atoms: _454  and  _457
REMARK  184  A    between atoms: _457  and  _458
REMARK  185  A    between atoms: _463  and  _464
REMARK  186  A    between atoms: _466  and  _468
REMARK  187  A    between atoms: _468  and  _469
REMARK  188  A    between atoms: _468  and  _471
REMARK  189  A    between atoms: _471  and  _472
REMARK  190  A    between atoms: _472  and  _473
REMARK  191  A    between atoms: _473  and  _474
REMARK  192  A    between atoms: _474  and  _475
REMARK  193  A    between atoms: _479  and  _481
REMARK  194  A    between atoms: _481  and  _482
REMARK  195  A    between atoms: _481  and  _484
REMARK  196  A    between atoms: _484  and  _485
REMARK  197  A    between atoms: _487  and  _489
REMARK  198  A    between atoms: _489  and  _490
REMARK  199  A    between atoms: _489  and  _492
REMARK  200  A    between atoms: _492  and  _493
REMARK  201  A    between atoms: _496  and  _498
REMARK  202  A    between atoms: _498  and  _499
REMARK  203  A    between atoms: _498  and  _501
REMARK  204  A    between atoms: _501  and  _502
REMARK  205  A    between atoms: _502  and  _503
REMARK  206  A    between atoms: _506  and  _508
REMARK  207  A    between atoms: _508  and  _509
REMARK  208  A    between atoms: _512  and  _514
REMARK  209  A    between atoms: _514  and  _515
REMARK  210  A    between atoms: _514  and  _517
REMARK  211  A    between atoms: _517  and  _518
REMARK  212  A    between atoms: _520  and  _522
REMARK  213  A    between atoms: _522  and  _523
REMARK  214  A    between atoms: _525  and  _527
REMARK  215  A    between atoms: _527  and  _528
REMARK  216  A    between atoms: _527  and  _530
REMARK  217  A    between atoms: _530  and  _531
REMARK  218  A    between atoms: _534  and  _536
REMARK  219  A    between atoms: _536  and  _537
REMARK  220  A    between atoms: _539  and  _541
REMARK  221  A    between atoms: _541  and  _542
REMARK  222  A    between atoms: _541  and  _544
REMARK  223  A    between atoms: _544  and  _545
REMARK  224  A    between atoms: _550  and  _552
REMARK  225  A    between atoms: _552  and  _553
REMARK  226  A    between atoms: _552  and  _555
REMARK  227  A    between atoms: _555  and  _556
REMARK  228  A    between atoms: _556  and  _557
REMARK  229  A    between atoms: _564  and  _565
REMARK  230  A    between atoms: _565  and  _581
REMARK  231  A    between atoms: _566  and  _568
REMARK  232  A    between atoms: _568  and  _569
REMARK  233  A    between atoms: _569  and  _570
REMARK  234  A    between atoms: _574  and  _576
REMARK  235  A    between atoms: _576  and  _577
REMARK  236  A    between atoms: _576  and  _584
REMARK  237  A    between atoms: _577  and  _578
REMARK  238  A    between atoms: _578  and  _579
REMARK  239  A    between atoms: _579  and  _580
REMARK  240  A    between atoms: _580  and  _581
REMARK  241  A    between atoms: _586  and  _588
REMARK  242  A    between atoms: _588  and  _589
REMARK  243  A    between atoms: _588  and  _591
REMARK  244  A    between atoms: _591  and  _592
REMARK  245  A    between atoms: _595  and  _597
REMARK  246  A    between atoms: _597  and  _598
REMARK  247  A    between atoms: _600  and  _602
REMARK  248  A    between atoms: _602  and  _603
REMARK  249  A    between atoms: _606  and  _608
REMARK  250  A    between atoms: _608  and  _609
REMARK  251  A    between atoms: _608  and  _611
REMARK  252  A    between atoms: _611  and  _612
REMARK  253  A    between atoms: _617  and  _618
REMARK                            x       y       z     vdW  Elec       q    Type
REMARK                         _______ _______ _______ _____ _____    ______ ____
ROOT
ATOM      1  O   HOH     1      40.746  26.277  37.521  0.00  0.00    +0.000 OA
ENDROOT
TORSDOF 0
REMARK  Name = ../refined-set-2016/3g2h/3g2h_pocket.pdb
REMARK  253 active torsions:
REMARK  status: ('A' for Active; 'I' for Inactive)
REMARK    1  A    between atoms: _1  and  _3
REMARK    2  A    between atoms: _3  and  _4
REMARK    3  A    between atoms: _3  and  _6
REMARK    4  A    between atoms: _6  and  _7
REMARK    5  A    between atoms: _12  and  _13
REMARK    6  A    between atoms: _15  and  _17
REMARK    7  A    between atoms: _17  and  _18
REMARK    8  A    between atoms: _17  and  _20
REMARK    9  A    between atoms: _20  and  _21
REMARK   10  A    between atoms: _21  and  _22
REMARK   11  A    between atoms: _25  and  _27
REMARK   12  A    between atoms: _27  and  _28
REMARK   13  A    between atoms: _27  and  _30
REMARK   14  A    between atoms: _30  and  _31
REMARK   15  A    between atoms: _36  and  _38
REMARK   16  A    between atoms: _38  and  _39
REMARK   17  A    between atoms: _41  and  _43
REMARK   18  A    between atoms: _43  and  _44
REMARK   19  A    between atoms: _46  and  _48
REMARK   20  A    between atoms: _48  and  _49
REMARK   21  A    between atoms: _48  and  _51
REMARK   22  A    between atoms: _51  and  _52
REMARK   23  A    between atoms: _55  and  _57
REMARK   24  A    between atoms: _57  and  _58
REMARK   25  A    between atoms: _60  and  _62
REMARK   26  A    between atoms: _62  and  _63
REMARK   27  A    between atoms: _62  and  _65
REMARK   28  A    between atoms: _65  and  _66
REMARK   29  A    between atoms: _66  and  _67
REMARK   30  A    between atoms: _67  and  _68
REMARK   31  A    between atoms: _77  and  _79
REMARK   32  A    between atoms: _79  and  _80
REMARK   33  A    between atoms: _79  and  _82
REMARK   34  A    between atoms: _82  and  _83
REMARK   35  A    between atoms: _86  and  _88
REMARK   36  A    between atoms: _88  and  _89
REMARK   37  A    between atoms: _92  and  _94
REMARK   38  A    between atoms: _94  and  _95
REMARK   39  A    between atoms: _94  and  _97
REMARK   40  A    between atoms: _97  and  _98
REMARK   41  A    between atoms: _104  and  _106
REMARK   42  A    between atoms: _106  and  _107
REMARK   43  A    between atoms: _106  and  _109
REMARK   44  A    between atoms: _109  and  _110
REMARK   45  A    between atoms: _115  and  _117
REMARK   46  A    between atoms: _117  and  _118
REMARK   47  A    between atoms: _117  and  _120
REMARK   48  A    between atoms: _120  and  _121
REMARK   49  A    between atoms: _124  and  _126
REMARK   50  A    between atoms: _126  and  _127
REMARK   51  A    between atoms: _126  and  _129
REMARK   52  A    between atoms: _129  and  _130
REMARK   53  A    between atoms: _135  and  _137
REMARK   54  A    between atoms: _137  and  _138
REMARK   55  A    between atoms: _137  and  _140
REMARK   56  A    between atoms: _140  and  _141
REMARK   57  A    between atoms: _147  and  _149
REMARK   58  A    between atoms: _149  and  _150
REMARK   59  A    between atoms: _149  and  _152
REMARK   60  A    between atoms: _152  and  _153
REMARK   61  A    between atoms: _159  and  _161
REMARK   62  A    between atoms: _161  and  _162
REMARK   63  A    between atoms: _161  and  _164
REMARK   64  A    between atoms: _164  and  _165
REMARK   65  A    between atoms: _165  and  _166
REMARK   66  A    between atoms: _169  and  _171
REMARK   67  A    between atoms: _171  and  _172
REMARK   68  A    between atoms: _171  and  _174
REMARK   69  A    between atoms: _174  and  _175
REMARK   70  A    between atoms: _175  and  _176
REMARK   71  A    between atoms: _176  and  _177
REMARK   72  A    between atoms: _186  and  _188
REMARK   73  A    between atoms: _188  and  _189
REMARK   74  A    between atoms: _188  and  _191
REMARK   75  A    between atoms: _191  and  _192
REMARK   76  A    between atoms: _197  and  _199
REMARK   77  A    between atoms: _199  and  _200
REMARK   78  A    between atoms: _199  and  _202
REMARK   79  A    between atoms: _202  and  _203
REMARK   80  A    between atoms: _206  and  _208
REMARK   81  A    between atoms: _208  and  _209
REMARK   82  A    between atoms: _208  and  _211
REMARK   83  A    between atoms: _211  and  _212
REMARK   84  A    between atoms: _215  and  _217
REMARK   85  A    between atoms: _217  and  _218
REMARK   86  A    between atoms: _217  and  _220
REMARK   87  A    between atoms: _220  and  _221
REMARK   88  A    between atoms: _226  and  _228
REMARK   89  A    between atoms: _228  and  _229
REMARK   90  A    between atoms: _228  and  _231
REMARK   91  A    between atoms: _231  and  _232
REMARK   92  A    between atoms: _237  and  _238
REMARK   93  A    between atoms: _240  and  _242
REMARK   94  A    between atoms: _242  and  _243
REMARK   95  A    between atoms: _242  and  _245
REMARK   96  A    between atoms: _245  and  _246
REMARK   97  A    between atoms: _249  and  _251
REMARK   98  A    between atoms: _251  and  _252
REMARK   99  A    between atoms: _251  and  _254
REMARK  100  A    between atoms: _254  and  _255
REMARK  101  A    between atoms: _260  and  _262
REMARK  102  A    between atoms: _262  and  _263
REMARK  103  A    between atoms: _262  and  _265
REMARK  104  A    between atoms: _265  and  _266
REMARK  105  A    between atoms: _271  and  _273
REMARK  106  A    between atoms: _273  and  _274
REMARK  107  A    between atoms: _273  and  _276
REMARK  108  A    between atoms: _276  and  _277
REMARK  109  A    between atoms: _280  and  _282
REMARK  110  A    between atoms: _282  and  _283
REMARK  111  A    between atoms: _282  and  _285
REMARK  112  A    between atoms: _288  and  _290
REMARK  113  A    between atoms: _290  and  _291
REMARK  114  A    between atoms: _290  and  _293
REMARK  115  A    between atoms: _293  and  _294
REMARK  116  A    between atoms: _297  and  _299
REMARK  117  A    between atoms: _299  and  _300
REMARK  118  A    between atoms: _299  and  _302
REMARK  119  A    between atoms: _302  and  _303
REMARK  120  A    between atoms: _303  and  _304
REMARK  121  A    between atoms: _307  and  _309
REMARK  122  A    between atoms: _309  and  _310
REMARK  123  A    between atoms: _313  and  _315
REMARK  124  A    between atoms: _315  and  _316
REMARK  125  A    between atoms: _315  and  _318
REMARK  126  A    between atoms: _318  and  _319
REMARK  127  A    between atoms: _322  and  _324
REMARK  128  A    between atoms: _324  and  _325
REMARK  129  A    between atoms: _324  and  _327
REMARK  130  A    between atoms: _327  and  _328
REMARK  131  A    between atoms: _328  and  _329
REMARK  132  A    between atoms: _332  and  _334
REMARK  133  A    between atoms: _334  and  _335
REMARK  134  A    between atoms: _334  and  _337
REMARK  135  A    between atoms: _337  and  _338
REMARK  136  A    between atoms: _343  and  _345
REMARK  137  A    between atoms: _345  and  _346
REMARK  138  A    between atoms: _348  and  _350
REMARK  139  A    between atoms: _350  and  _351
REMARK  140  A    between atoms: _350  and  _353
REMARK  141  A    between atoms: _356  and  _358
REMARK  142  A    between atoms: _358  and  _359
REMARK  143  A    between atoms: _362  and  _364
REMARK  144  A    between atoms: _364  and  _365
REMARK  145  A    between atoms: _364  and  _367
REMARK  146  A    between atoms: _367  and  _368
REMARK  147  A    between atoms: _373  and  _375
REMARK  148  A    between atoms: _375  and  _376
REMARK  149  A    between atoms: _375  and  _378
REMARK  150  A    between atoms: _378  and  _379
REMARK  151  A    between atoms: _379  and  _380
REMARK  152  A    between atoms: _380  and  _381
REMARK  153  A    between atoms: _381  and  _382
REMARK  154  A    between atoms: _386  and  _388
REMARK  155  A    between atoms: _388  and  _389
REMARK  156  A    between atoms: _388  and  _391
REMARK  157  A    between atoms: _391  and  _392
REMARK  158  A    between atoms: _395  and  _397
REMARK  159  A    between atoms: _397  and  _398
REMARK  160  A    between atoms: _397  and  _400
REMARK  161  A    between atoms: _400  and  _401
REMARK  162  A    between atoms: _406  and  _408
REMARK  163  A    between atoms: _408  and  _409
REMARK  164  A    between atoms: _411  and  _413
REMARK  165  A    between atoms: _413  and  _414
REMARK  166  A    between atoms: _413  and  _416
REMARK  167  A    between atoms: _416  and  _417
REMARK  168  A    between atoms: _417  and  _418
REMARK  169  A    between atoms: _418  and  _419
REMARK  170  A    between atoms: _419  and  _420
REMARK  171  A    between atoms: _424  and  _426
REMARK  172  A    between atoms: _426  and  _427
REMARK  173  A    between atoms: _426  and  _429
REMARK  174  A    between atoms: _429  and  _430
REMARK  175  A    between atoms: _430  and  _431
REMARK  176  A    between atoms: _431  and  _432
REMARK  177  A    between atoms: _441  and  _443
REMARK  178  A    between atoms: _443  and  _444
REMARK  179  A    between atoms: _443  and  _446
REMARK  180  A    between atoms: _446  and  _447
REMARK  181  A    between atoms: _452  and  _454
REMARK  182  A    between atoms: _454  and  _455
REMARK  183  A    between atoms: _454  and  _457
REMARK  184  A    between atoms: _457  and  _458
REMARK  185  A    between atoms: _463  and  _464
REMARK  186  A    between atoms: _466  and  _468
REMARK  187  A    between atoms: _468  and  _469
REMARK  188  A    between atoms: _468  and  _471
REMARK  189  A    between atoms: _471  and  _472
REMARK  190  A    between atoms: _472  and  _473
REMARK  191  A    between atoms: _473  and  _474
REMARK  192  A    between atoms: _474  and  _475
REMARK  193  A    between atoms: _479  and  _481
REMARK  194  A    between atoms: _481  and  _482
REMARK  195  A    between atoms: _481  and  _484
REMARK  196  A    between atoms: _484  and  _485
REMARK  197  A    between atoms: _487  and  _489
REMARK  198  A    between atoms: _489  and  _490
REMARK  199  A    between atoms: _489  and  _492
REMARK  200  A    between atoms: _492  and  _493
REMARK  201  A    between atoms: _496  and  _498
REMARK  202  A    between atoms: _498  and  _499
REMARK  203  A    between atoms: _498  and  _501
REMARK  204  A    between atoms: _501  and  _502
REMARK  205  A    between atoms: _502  and  _503
REMARK  206  A    between atoms: _506  and  _508
REMARK  207  A    between atoms: _508  and  _509
REMARK  208  A    between atoms: _512  and  _514
REMARK  209  A    between atoms: _514  and  _515
REMARK  210  A    between atoms: _514  and  _517
REMARK  211  A    between atoms: _517  and  _518
REMARK  212  A    between atoms: _520  and  _522
REMARK  213  A    between atoms: _522  and  _523
REMARK  214  A    between atoms: _525  and  _527
REMARK  215  A    between atoms: _527  and  _528
REMARK  216  A    between atoms: _527  and  _530
REMARK  217  A    between atoms: _530  and  _531
REMARK  218  A    between atoms: _534  and  _536
REMARK  219  A    between atoms: _536  and  _537
REMARK  220  A    between atoms: _539  and  _541
REMARK  221  A    between atoms: _541  and  _542
REMARK  222  A    between atoms: _541  and  _544
REMARK  223  A    between atoms: _544  and  _545
REMARK  224  A    between atoms: _550  and  _552
REMARK  225  A    between atoms: _552  and  _553
REMARK  226  A    between atoms: _552  and  _555
REMARK  227  A    between atoms: _555  and  _556
REMARK  228  A    between atoms: _556  and  _557
REMARK  229  A    between atoms: _564  and  _565
REMARK  230  A    between atoms: _565  and  _581
REMARK  231  A    between atoms: _566  and  _568
REMARK  232  A    between atoms: _568  and  _569
REMARK  233  A    between atoms: _569  and  _570
REMARK  234  A    between atoms: _574  and  _576
REMARK  235  A    between atoms: _576  and  _577
REMARK  236  A    between atoms: _576  and  _584
REMARK  237  A    between atoms: _577  and  _578
REMARK  238  A    between atoms: _578  and  _579
REMARK  239  A    between atoms: _579  and  _580
REMARK  240  A    between atoms: _580  and  _581
REMARK  241  A    between atoms: _586  and  _588
REMARK  242  A    between atoms: _588  and  _589
REMARK  243  A    between atoms: _588  and  _591
REMARK  244  A    between atoms: _591  and  _592
REMARK  245  A    between atoms: _595  and  _597
REMARK  246  A    between atoms: _597  and  _598
REMARK  247  A    between atoms: _600  and  _602
REMARK  248  A    between atoms: _602  and  _603
REMARK  249  A    between atoms: _606  and  _608
REMARK  250  A    between atoms: _608  and  _609
REMARK  251  A    between atoms: _608  and  _611
REMARK  252  A    between atoms: _611  and  _612
REMARK  253  A    between atoms: _617  and  _618
REMARK                            x       y       z     vdW  Elec       q    Type
REMARK                         _______ _______ _______ _____ _____    ______ ____
ROOT
ATOM      1  O   HOH     1      36.205  22.007  17.972  0.00  0.00    +0.000 OA
ENDROOT
TORSDOF 0
REMARK  Name = ../refined-set-2016/3g2h/3g2h_pocket.pdb
REMARK  253 active torsions:
REMARK  status: ('A' for Active; 'I' for Inactive)
REMARK    1  A    between atoms: _1  and  _3
REMARK    2  A    between atoms: _3  and  _4
REMARK    3  A    between atoms: _3  and  _6
REMARK    4  A    between atoms: _6  and  _7
REMARK    5  A    between atoms: _12  and  _13
REMARK    6  A    between atoms: _15  and  _17
REMARK    7  A    between atoms: _17  and  _18
REMARK    8  A    between atoms: _17  and  _20
REMARK    9  A    between atoms: _20  and  _21
REMARK   10  A    between atoms: _21  and  _22
REMARK   11  A    between atoms: _25  and  _27
REMARK   12  A    between atoms: _27  and  _28
REMARK   13  A    between atoms: _27  and  _30
REMARK   14  A    between atoms: _30  and  _31
REMARK   15  A    between atoms: _36  and  _38
REMARK   16  A    between atoms: _38  and  _39
REMARK   17  A    between atoms: _41  and  _43
REMARK   18  A    between atoms: _43  and  _44
REMARK   19  A    between atoms: _46  and  _48
REMARK   20  A    between atoms: _48  and  _49
REMARK   21  A    between atoms: _48  and  _51
REMARK   22  A    between atoms: _51  and  _52
REMARK   23  A    between atoms: _55  and  _57
REMARK   24  A    between atoms: _57  and  _58
REMARK   25  A    between atoms: _60  and  _62
REMARK   26  A    between atoms: _62  and  _63
REMARK   27  A    between atoms: _62  and  _65
REMARK   28  A    between atoms: _65  and  _66
REMARK   29  A    between atoms: _66  and  _67
REMARK   30  A    between atoms: _67  and  _68
REMARK   31  A    between atoms: _77  and  _79
REMARK   32  A    between atoms: _79  and  _80
REMARK   33  A    between atoms: _79  and  _82
REMARK   34  A    between atoms: _82  and  _83
REMARK   35  A    between atoms: _86  and  _88
REMARK   36  A    between atoms: _88  and  _89
REMARK   37  A    between atoms: _92  and  _94
REMARK   38  A    between atoms: _94  and  _95
REMARK   39  A    between atoms: _94  and  _97
REMARK   40  A    between atoms: _97  and  _98
REMARK   41  A    between atoms: _104  and  _106
REMARK   42  A    between atoms: _106  and  _107
REMARK   43  A    between atoms: _106  and  _109
REMARK   44  A    between atoms: _109  and  _110
REMARK   45  A    between atoms: _115  and  _117
REMARK   46  A    between atoms: _117  and  _118
REMARK   47  A    between atoms: _117  and  _120
REMARK   48  A    between atoms: _120  and  _121
REMARK   49  A    between atoms: _124  and  _126
REMARK   50  A    between atoms: _126  and  _127
REMARK   51  A    between atoms: _126  and  _129
REMARK   52  A    between atoms: _129  and  _130
REMARK   53  A    between atoms: _135  and  _137
REMARK   54  A    between atoms: _137  and  _138
REMARK   55  A    between atoms: _137  and  _140
REMARK   56  A    between atoms: _140  and  _141
REMARK   57  A    between atoms: _147  and  _149
REMARK   58  A    between atoms: _149  and  _150
REMARK   59  A    between atoms: _149  and  _152
REMARK   60  A    between atoms: _152  and  _153
REMARK   61  A    between atoms: _159  and  _161
REMARK   62  A    between atoms: _161  and  _162
REMARK   63  A    between atoms: _161  and  _164
REMARK   64  A    between atoms: _164  and  _165
REMARK   65  A    between atoms: _165  and  _166
REMARK   66  A    between atoms: _169  and  _171
REMARK   67  A    between atoms: _171  and  _172
REMARK   68  A    between atoms: _171  and  _174
REMARK   69  A    between atoms: _174  and  _175
REMARK   70  A    between atoms: _175  and  _176
REMARK   71  A    between atoms: _176  and  _177
REMARK   72  A    between atoms: _186  and  _188
REMARK   73  A    between atoms: _188  and  _189
REMARK   74  A    between atoms: _188  and  _191
REMARK   75  A    between atoms: _191  and  _192
REMARK   76  A    between atoms: _197  and  _199
REMARK   77  A    between atoms: _199  and  _200
REMARK   78  A    between atoms: _199  and  _202
REMARK   79  A    between atoms: _202  and  _203
REMARK   80  A    between atoms: _206  and  _208
REMARK   81  A    between atoms: _208  and  _209
REMARK   82  A    between atoms: _208  and  _211
REMARK   83  A    between atoms: _211  and  _212
REMARK   84  A    between atoms: _215  and  _217
REMARK   85  A    between atoms: _217  and  _218
REMARK   86  A    between atoms: _217  and  _220
REMARK   87  A    between atoms: _220  and  _221
REMARK   88  A    between atoms: _226  and  _228
REMARK   89  A    between atoms: _228  and  _229
REMARK   90  A    between atoms: _228  and  _231
REMARK   91  A    between atoms: _231  and  _232
REMARK   92  A    between atoms: _237  and  _238
REMARK   93  A    between atoms: _240  and  _242
REMARK   94  A    between atoms: _242  and  _243
REMARK   95  A    between atoms: _242  and  _245
REMARK   96  A    between atoms: _245  and  _246
REMARK   97  A    between atoms: _249  and  _251
REMARK   98  A    between atoms: _251  and  _252
REMARK   99  A    between atoms: _251  and  _254
REMARK  100  A    between atoms: _254  and  _255
REMARK  101  A    between atoms: _260  and  _262
REMARK  102  A    between atoms: _262  and  _263
REMARK  103  A    between atoms: _262  and  _265
REMARK  104  A    between atoms: _265  and  _266
REMARK  105  A    between atoms: _271  and  _273
REMARK  106  A    between atoms: _273  and  _274
REMARK  107  A    between atoms: _273  and  _276
REMARK  108  A    between atoms: _276  and  _277
REMARK  109  A    between atoms: _280  and  _282
REMARK  110  A    between atoms: _282  and  _283
REMARK  111  A    between atoms: _282  and  _285
REMARK  112  A    between atoms: _288  and  _290
REMARK  113  A    between atoms: _290  and  _291
REMARK  114  A    between atoms: _290  and  _293
REMARK  115  A    between atoms: _293  and  _294
REMARK  116  A    between atoms: _297  and  _299
REMARK  117  A    between atoms: _299  and  _300
REMARK  118  A    between atoms: _299  and  _302
REMARK  119  A    between atoms: _302  and  _303
REMARK  120  A    between atoms: _303  and  _304
REMARK  121  A    between atoms: _307  and  _309
REMARK  122  A    between atoms: _309  and  _310
REMARK  123  A    between atoms: _313  and  _315
REMARK  124  A    between atoms: _315  and  _316
REMARK  125  A    between atoms: _315  and  _318
REMARK  126  A    between atoms: _318  and  _319
REMARK  127  A    between atoms: _322  and  _324
REMARK  128  A    between atoms: _324  and  _325
REMARK  129  A    between atoms: _324  and  _327
REMARK  130  A    between atoms: _327  and  _328
REMARK  131  A    between atoms: _328  and  _329
REMARK  132  A    between atoms: _332  and  _334
REMARK  133  A    between atoms: _334  and  _335
REMARK  134  A    between atoms: _334  and  _337
REMARK  135  A    between atoms: _337  and  _338
REMARK  136  A    between atoms: _343  and  _345
REMARK  137  A    between atoms: _345  and  _346
REMARK  138  A    between atoms: _348  and  _350
REMARK  139  A    between atoms: _350  and  _351
REMARK  140  A    between atoms: _350  and  _353
REMARK  141  A    between atoms: _356  and  _358
REMARK  142  A    between atoms: _358  and  _359
REMARK  143  A    between atoms: _362  and  _364
REMARK  144  A    between atoms: _364  and  _365
REMARK  145  A    between atoms: _364  and  _367
REMARK  146  A    between atoms: _367  and  _368
REMARK  147  A    between atoms: _373  and  _375
REMARK  148  A    between atoms: _375  and  _376
REMARK  149  A    between atoms: _375  and  _378
REMARK  150  A    between atoms: _378  and  _379
REMARK  151  A    between atoms: _379  and  _380
REMARK  152  A    between atoms: _380  and  _381
REMARK  153  A    between atoms: _381  and  _382
REMARK  154  A    between atoms: _386  and  _388
REMARK  155  A    between atoms: _388  and  _389
REMARK  156  A    between atoms: _388  and  _391
REMARK  157  A    between atoms: _391  and  _392
REMARK  158  A    between atoms: _395  and  _397
REMARK  159  A    between atoms: _397  and  _398
REMARK  160  A    between atoms: _397  and  _400
REMARK  161  A    between atoms: _400  and  _401
REMARK  162  A    between atoms: _406  and  _408
REMARK  163  A    between atoms: _408  and  _409
REMARK  164  A    between atoms: _411  and  _413
REMARK  165  A    between atoms: _413  and  _414
REMARK  166  A    between atoms: _413  and  _416
REMARK  167  A    between atoms: _416  and  _417
REMARK  168  A    between atoms: _417  and  _418
REMARK  169  A    between atoms: _418  and  _419
REMARK  170  A    between atoms: _419  and  _420
REMARK  171  A    between atoms: _424  and  _426
REMARK  172  A    between atoms: _426  and  _427
REMARK  173  A    between atoms: _426  and  _429
REMARK  174  A    between atoms: _429  and  _430
REMARK  175  A    between atoms: _430  and  _431
REMARK  176  A    between atoms: _431  and  _432
REMARK  177  A    between atoms: _441  and  _443
REMARK  178  A    between atoms: _443  and  _444
REMARK  179  A    between atoms: _443  and  _446
REMARK  180  A    between atoms: _446  and  _447
REMARK  181  A    between atoms: _452  and  _454
REMARK  182  A    between atoms: _454  and  _455
REMARK  183  A    between atoms: _454  and  _457
REMARK  184  A    between atoms: _457  and  _458
REMARK  185  A    between atoms: _463  and  _464
REMARK  186  A    between atoms: _466  and  _468
REMARK  187  A    between atoms: _468  and  _469
REMARK  188  A    between atoms: _468  and  _471
REMARK  189  A    between atoms: _471  and  _472
REMARK  190  A    between atoms: _472  and  _473
REMARK  191  A    between atoms: _473  and  _474
REMARK  192  A    between atoms: _474  and  _475
REMARK  193  A    between atoms: _479  and  _481
REMARK  194  A    between atoms: _481  and  _482
REMARK  195  A    between atoms: _481  and  _484
REMARK  196  A    between atoms: _484  and  _485
REMARK  197  A    between atoms: _487  and  _489
REMARK  198  A    between atoms: _489  and  _490
REMARK  199  A    between atoms: _489  and  _492
REMARK  200  A    between atoms: _492  and  _493
REMARK  201  A    between atoms: _496  and  _498
REMARK  202  A    between atoms: _498  and  _499
REMARK  203  A    between atoms: _498  and  _501
REMARK  204  A    between atoms: _501  and  _502
REMARK  205  A    between atoms: _502  and  _503
REMARK  206  A    between atoms: _506  and  _508
REMARK  207  A    between atoms: _508  and  _509
REMARK  208  A    between atoms: _512  and  _514
REMARK  209  A    between atoms: _514  and  _515
REMARK  210  A    between atoms: _514  and  _517
REMARK  211  A    between atoms: _517  and  _518
REMARK  212  A    between atoms: _520  and  _522
REMARK  213  A    between atoms: _522  and  _523
REMARK  214  A    between atoms: _525  and  _527
REMARK  215  A    between atoms: _527  and  _528
REMARK  216  A    between atoms: _527  and  _530
REMARK  217  A    between atoms: _530  and  _531
REMARK  218  A    between atoms: _534  and  _536
REMARK  219  A    between atoms: _536  and  _537
REMARK  220  A    between atoms: _539  and  _541
REMARK  221  A    between atoms: _541  and  _542
REMARK  222  A    between atoms: _541  and  _544
REMARK  223  A    between atoms: _544  and  _545
REMARK  224  A    between atoms: _550  and  _552
REMARK  225  A    between atoms: _552  and  _553
REMARK  226  A    between atoms: _552  and  _555
REMARK  227  A    between atoms: _555  and  _556
REMARK  228  A    between atoms: _556  and  _557
REMARK  229  A    between atoms: _564  and  _565
REMARK  230  A    between atoms: _565  and  _581
REMARK  231  A    between atoms: _566  and  _568
REMARK  232  A    between atoms: _568  and  _569
REMARK  233  A    between atoms: _569  and  _570
REMARK  234  A    between atoms: _574  and  _576
REMARK  235  A    between atoms: _576  and  _577
REMARK  236  A    between atoms: _576  and  _584
REMARK  237  A    between atoms: _577  and  _578
REMARK  238  A    between atoms: _578  and  _579
REMARK  239  A    between atoms: _579  and  _580
REMARK  240  A    between atoms: _580  and  _581
REMARK  241  A    between atoms: _586  and  _588
REMARK  242  A    between atoms: _588  and  _589
REMARK  243  A    between atoms: _588  and  _591
REMARK  244  A    between atoms: _591  and  _592
REMARK  245  A    between atoms: _595  and  _597
REMARK  246  A    between atoms: _597  and  _598
REMARK  247  A    between atoms: _600  and  _602
REMARK  248  A    between atoms: _602  and  _603
REMARK  249  A    between atoms: _606  and  _608
REMARK  250  A    between atoms: _608  and  _609
REMARK  251  A    between atoms: _608  and  _611
REMARK  252  A    between atoms: _611  and  _612
REMARK  253  A    between atoms: _617  and  _618
REMARK                            x       y       z     vdW  Elec       q    Type
REMARK                         _______ _______ _______ _____ _____    ______ ____
ROOT
ATOM      1  O   HOH     1      29.136  25.771  18.065  0.00  0.00    +0.000 OA
ENDROOT
TORSDOF 0
REMARK  Name = ../refined-set-2016/3g2h/3g2h_pocket.pdb
REMARK  253 active torsions:
REMARK  status: ('A' for Active; 'I' for Inactive)
REMARK    1  A    between atoms: _1  and  _3
REMARK    2  A    between atoms: _3  and  _4
REMARK    3  A    between atoms: _3  and  _6
REMARK    4  A    between atoms: _6  and  _7
REMARK    5  A    between atoms: _12  and  _13
REMARK    6  A    between atoms: _15  and  _17
REMARK    7  A    between atoms: _17  and  _18
REMARK    8  A    between atoms: _17  and  _20
REMARK    9  A    between atoms: _20  and  _21
REMARK   10  A    between atoms: _21  and  _22
REMARK   11  A    between atoms: _25  and  _27
REMARK   12  A    between atoms: _27  and  _28
REMARK   13  A    between atoms: _27  and  _30
REMARK   14  A    between atoms: _30  and  _31
REMARK   15  A    between atoms: _36  and  _38
REMARK   16  A    between atoms: _38  and  _39
REMARK   17  A    between atoms: _41  and  _43
REMARK   18  A    between atoms: _43  and  _44
REMARK   19  A    between atoms: _46  and  _48
REMARK   20  A    between atoms: _48  and  _49
REMARK   21  A    between atoms: _48  and  _51
REMARK   22  A    between atoms: _51  and  _52
REMARK   23  A    between atoms: _55  and  _57
REMARK   24  A    between atoms: _57  and  _58
REMARK   25  A    between atoms: _60  and  _62
REMARK   26  A    between atoms: _62  and  _63
REMARK   27  A    between atoms: _62  and  _65
REMARK   28  A    between atoms: _65  and  _66
REMARK   29  A    between atoms: _66  and  _67
REMARK   30  A    between atoms: _67  and  _68
REMARK   31  A    between atoms: _77  and  _79
REMARK   32  A    between atoms: _79  and  _80
REMARK   33  A    between atoms: _79  and  _82
REMARK   34  A    between atoms: _82  and  _83
REMARK   35  A    between atoms: _86  and  _88
REMARK   36  A    between atoms: _88  and  _89
REMARK   37  A    between atoms: _92  and  _94
REMARK   38  A    between atoms: _94  and  _95
REMARK   39  A    between atoms: _94  and  _97
REMARK   40  A    between atoms: _97  and  _98
REMARK   41  A    between atoms: _104  and  _106
REMARK   42  A    between atoms: _106  and  _107
REMARK   43  A    between atoms: _106  and  _109
REMARK   44  A    between atoms: _109  and  _110
REMARK   45  A    between atoms: _115  and  _117
REMARK   46  A    between atoms: _117  and  _118
REMARK   47  A    between atoms: _117  and  _120
REMARK   48  A    between atoms: _120  and  _121
REMARK   49  A    between atoms: _124  and  _126
REMARK   50  A    between atoms: _126  and  _127
REMARK   51  A    between atoms: _126  and  _129
REMARK   52  A    between atoms: _129  and  _130
REMARK   53  A    between atoms: _135  and  _137
REMARK   54  A    between atoms: _137  and  _138
REMARK   55  A    between atoms: _137  and  _140
REMARK   56  A    between atoms: _140  and  _141
REMARK   57  A    between atoms: _147  and  _149
REMARK   58  A    between atoms: _149  and  _150
REMARK   59  A    between atoms: _149  and  _152
REMARK   60  A    between atoms: _152  and  _153
REMARK   61  A    between atoms: _159  and  _161
REMARK   62  A    between atoms: _161  and  _162
REMARK   63  A    between atoms: _161  and  _164
REMARK   64  A    between atoms: _164  and  _165
REMARK   65  A    between atoms: _165  and  _166
REMARK   66  A    between atoms: _169  and  _171
REMARK   67  A    between atoms: _171  and  _172
REMARK   68  A    between atoms: _171  and  _174
REMARK   69  A    between atoms: _174  and  _175
REMARK   70  A    between atoms: _175  and  _176
REMARK   71  A    between atoms: _176  and  _177
REMARK   72  A    between atoms: _186  and  _188
REMARK   73  A    between atoms: _188  and  _189
REMARK   74  A    between atoms: _188  and  _191
REMARK   75  A    between atoms: _191  and  _192
REMARK   76  A    between atoms: _197  and  _199
REMARK   77  A    between atoms: _199  and  _200
REMARK   78  A    between atoms: _199  and  _202
REMARK   79  A    between atoms: _202  and  _203
REMARK   80  A    between atoms: _206  and  _208
REMARK   81  A    between atoms: _208  and  _209
REMARK   82  A    between atoms: _208  and  _211
REMARK   83  A    between atoms: _211  and  _212
REMARK   84  A    between atoms: _215  and  _217
REMARK   85  A    between atoms: _217  and  _218
REMARK   86  A    between atoms: _217  and  _220
REMARK   87  A    between atoms: _220  and  _221
REMARK   88  A    between atoms: _226  and  _228
REMARK   89  A    between atoms: _228  and  _229
REMARK   90  A    between atoms: _228  and  _231
REMARK   91  A    between atoms: _231  and  _232
REMARK   92  A    between atoms: _237  and  _238
REMARK   93  A    between atoms: _240  and  _242
REMARK   94  A    between atoms: _242  and  _243
REMARK   95  A    between atoms: _242  and  _245
REMARK   96  A    between atoms: _245  and  _246
REMARK   97  A    between atoms: _249  and  _251
REMARK   98  A    between atoms: _251  and  _252
REMARK   99  A    between atoms: _251  and  _254
REMARK  100  A    between atoms: _254  and  _255
REMARK  101  A    between atoms: _260  and  _262
REMARK  102  A    between atoms: _262  and  _263
REMARK  103  A    between atoms: _262  and  _265
REMARK  104  A    between atoms: _265  and  _266
REMARK  105  A    between atoms: _271  and  _273
REMARK  106  A    between atoms: _273  and  _274
REMARK  107  A    between atoms: _273  and  _276
REMARK  108  A    between atoms: _276  and  _277
REMARK  109  A    between atoms: _280  and  _282
REMARK  110  A    between atoms: _282  and  _283
REMARK  111  A    between atoms: _282  and  _285
REMARK  112  A    between atoms: _288  and  _290
REMARK  113  A    between atoms: _290  and  _291
REMARK  114  A    between atoms: _290  and  _293
REMARK  115  A    between atoms: _293  and  _294
REMARK  116  A    between atoms: _297  and  _299
REMARK  117  A    between atoms: _299  and  _300
REMARK  118  A    between atoms: _299  and  _302
REMARK  119  A    between atoms: _302  and  _303
REMARK  120  A    between atoms: _303  and  _304
REMARK  121  A    between atoms: _307  and  _309
REMARK  122  A    between atoms: _309  and  _310
REMARK  123  A    between atoms: _313  and  _315
REMARK  124  A    between atoms: _315  and  _316
REMARK  125  A    between atoms: _315  and  _318
REMARK  126  A    between atoms: _318  and  _319
REMARK  127  A    between atoms: _322  and  _324
REMARK  128  A    between atoms: _324  and  _325
REMARK  129  A    between atoms: _324  and  _327
REMARK  130  A    between atoms: _327  and  _328
REMARK  131  A    between atoms: _328  and  _329
REMARK  132  A    between atoms: _332  and  _334
REMARK  133  A    between atoms: _334  and  _335
REMARK  134  A    between atoms: _334  and  _337
REMARK  135  A    between atoms: _337  and  _338
REMARK  136  A    between atoms: _343  and  _345
REMARK  137  A    between atoms: _345  and  _346
REMARK  138  A    between atoms: _348  and  _350
REMARK  139  A    between atoms: _350  and  _351
REMARK  140  A    between atoms: _350  and  _353
REMARK  141  A    between atoms: _356  and  _358
REMARK  142  A    between atoms: _358  and  _359
REMARK  143  A    between atoms: _362  and  _364
REMARK  144  A    between atoms: _364  and  _365
REMARK  145  A    between atoms: _364  and  _367
REMARK  146  A    between atoms: _367  and  _368
REMARK  147  A    between atoms: _373  and  _375
REMARK  148  A    between atoms: _375  and  _376
REMARK  149  A    between atoms: _375  and  _378
REMARK  150  A    between atoms: _378  and  _379
REMARK  151  A    between atoms: _379  and  _380
REMARK  152  A    between atoms: _380  and  _381
REMARK  153  A    between atoms: _381  and  _382
REMARK  154  A    between atoms: _386  and  _388
REMARK  155  A    between atoms: _388  and  _389
REMARK  156  A    between atoms: _388  and  _391
REMARK  157  A    between atoms: _391  and  _392
REMARK  158  A    between atoms: _395  and  _397
REMARK  159  A    between atoms: _397  and  _398
REMARK  160  A    between atoms: _397  and  _400
REMARK  161  A    between atoms: _400  and  _401
REMARK  162  A    between atoms: _406  and  _408
REMARK  163  A    between atoms: _408  and  _409
REMARK  164  A    between atoms: _411  and  _413
REMARK  165  A    between atoms: _413  and  _414
REMARK  166  A    between atoms: _413  and  _416
REMARK  167  A    between atoms: _416  and  _417
REMARK  168  A    between atoms: _417  and  _418
REMARK  169  A    between atoms: _418  and  _419
REMARK  170  A    between atoms: _419  and  _420
REMARK  171  A    between atoms: _424  and  _426
REMARK  172  A    between atoms: _426  and  _427
REMARK  173  A    between atoms: _426  and  _429
REMARK  174  A    between atoms: _429  and  _430
REMARK  175  A    between atoms: _430  and  _431
REMARK  176  A    between atoms: _431  and  _432
REMARK  177  A    between atoms: _441  and  _443
REMARK  178  A    between atoms: _443  and  _444
REMARK  179  A    between atoms: _443  and  _446
REMARK  180  A    between atoms: _446  and  _447
REMARK  181  A    between atoms: _452  and  _454
REMARK  182  A    between atoms: _454  and  _455
REMARK  183  A    between atoms: _454  and  _457
REMARK  184  A    between atoms: _457  and  _458
REMARK  185  A    between atoms: _463  and  _464
REMARK  186  A    between atoms: _466  and  _468
REMARK  187  A    between atoms: _468  and  _469
REMARK  188  A    between atoms: _468  and  _471
REMARK  189  A    between atoms: _471  and  _472
REMARK  190  A    between atoms: _472  and  _473
REMARK  191  A    between atoms: _473  and  _474
REMARK  192  A    between atoms: _474  and  _475
REMARK  193  A    between atoms: _479  and  _481
REMARK  194  A    between atoms: _481  and  _482
REMARK  195  A    between atoms: _481  and  _484
REMARK  196  A    between atoms: _484  and  _485
REMARK  197  A    between atoms: _487  and  _489
REMARK  198  A    between atoms: _489  and  _490
REMARK  199  A    between atoms: _489  and  _492
REMARK  200  A    between atoms: _492  and  _493
REMARK  201  A    between atoms: _496  and  _498
REMARK  202  A    between atoms: _498  and  _499
REMARK  203  A    between atoms: _498  and  _501
REMARK  204  A    between atoms: _501  and  _502
REMARK  205  A    between atoms: _502  and  _503
REMARK  206  A    between atoms: _506  and  _508
REMARK  207  A    between atoms: _508  and  _509
REMARK  208  A    between atoms: _512  and  _514
REMARK  209  A    between atoms: _514  and  _515
REMARK  210  A    between atoms: _514  and  _517
REMARK  211  A    between atoms: _517  and  _518
REMARK  212  A    between atoms: _520  and  _522
REMARK  213  A    between atoms: _522  and  _523
REMARK  214  A    between atoms: _525  and  _527
REMARK  215  A    between atoms: _527  and  _528
REMARK  216  A    between atoms: _527  and  _530
REMARK  217  A    between atoms: _530  and  _531
REMARK  218  A    between atoms: _534  and  _536
REMARK  219  A    between atoms: _536  and  _537
REMARK  220  A    between atoms: _539  and  _541
REMARK  221  A    between atoms: _541  and  _542
REMARK  222  A    between atoms: _541  and  _544
REMARK  223  A    between atoms: _544  and  _545
REMARK  224  A    between atoms: _550  and  _552
REMARK  225  A    between atoms: _552  and  _553
REMARK  226  A    between atoms: _552  and  _555
REMARK  227  A    between atoms: _555  and  _556
REMARK  228  A    between atoms: _556  and  _557
REMARK  229  A    between atoms: _564  and  _565
REMARK  230  A    between atoms: _565  and  _581
REMARK  231  A    between atoms: _566  and  _568
REMARK  232  A    between atoms: _568  and  _569
REMARK  233  A    between atoms: _569  and  _570
REMARK  234  A    between atoms: _574  and  _576
REMARK  235  A    between atoms: _576  and  _577
REMARK  236  A    between atoms: _576  and  _584
REMARK  237  A    between atoms: _577  and  _578
REMARK  238  A    between atoms: _578  and  _579
REMARK  239  A    between atoms: _579  and  _580
REMARK  240  A    between atoms: _580  and  _581
REMARK  241  A    between atoms: _586  and  _588
REMARK  242  A    between atoms: _588  and  _589
REMARK  243  A    between atoms: _588  and  _591
REMARK  244  A    between atoms: _591  and  _592
REMARK  245  A    between atoms: _595  and  _597
REMARK  246  A    between atoms: _597  and  _598
REMARK  247  A    between atoms: _600  and  _602
REMARK  248  A    between atoms: _602  and  _603
REMARK  249  A    between atoms: _606  and  _608
REMARK  250  A    between atoms: _608  and  _609
REMARK  251  A    between atoms: _608  and  _611
REMARK  252  A    between atoms: _611  and  _612
REMARK  253  A    between atoms: _617  and  _618
REMARK                            x       y       z     vdW  Elec       q    Type
REMARK                         _______ _______ _______ _____ _____    ______ ____
ROOT
ATOM      1  O   HOH     1      29.446  22.951  18.654  0.00  0.00    +0.000 OA
ENDROOT
TORSDOF 0
REMARK  Name = ../refined-set-2016/3g2h/3g2h_pocket.pdb
REMARK  253 active torsions:
REMARK  status: ('A' for Active; 'I' for Inactive)
REMARK    1  A    between atoms: _1  and  _3
REMARK    2  A    between atoms: _3  and  _4
REMARK    3  A    between atoms: _3  and  _6
REMARK    4  A    between atoms: _6  and  _7
REMARK    5  A    between atoms: _12  and  _13
REMARK    6  A    between atoms: _15  and  _17
REMARK    7  A    between atoms: _17  and  _18
REMARK    8  A    between atoms: _17  and  _20
REMARK    9  A    between atoms: _20  and  _21
REMARK   10  A    between atoms: _21  and  _22
REMARK   11  A    between atoms: _25  and  _27
REMARK   12  A    between atoms: _27  and  _28
REMARK   13  A    between atoms: _27  and  _30
REMARK   14  A    between atoms: _30  and  _31
REMARK   15  A    between atoms: _36  and  _38
REMARK   16  A    between atoms: _38  and  _39
REMARK   17  A    between atoms: _41  and  _43
REMARK   18  A    between atoms: _43  and  _44
REMARK   19  A    between atoms: _46  and  _48
REMARK   20  A    between atoms: _48  and  _49
REMARK   21  A    between atoms: _48  and  _51
REMARK   22  A    between atoms: _51  and  _52
REMARK   23  A    between atoms: _55  and  _57
REMARK   24  A    between atoms: _57  and  _58
REMARK   25  A    between atoms: _60  and  _62
REMARK   26  A    between atoms: _62  and  _63
REMARK   27  A    between atoms: _62  and  _65
REMARK   28  A    between atoms: _65  and  _66
REMARK   29  A    between atoms: _66  and  _67
REMARK   30  A    between atoms: _67  and  _68
REMARK   31  A    between atoms: _77  and  _79
REMARK   32  A    between atoms: _79  and  _80
REMARK   33  A    between atoms: _79  and  _82
REMARK   34  A    between atoms: _82  and  _83
REMARK   35  A    between atoms: _86  and  _88
REMARK   36  A    between atoms: _88  and  _89
REMARK   37  A    between atoms: _92  and  _94
REMARK   38  A    between atoms: _94  and  _95
REMARK   39  A    between atoms: _94  and  _97
REMARK   40  A    between atoms: _97  and  _98
REMARK   41  A    between atoms: _104  and  _106
REMARK   42  A    between atoms: _106  and  _107
REMARK   43  A    between atoms: _106  and  _109
REMARK   44  A    between atoms: _109  and  _110
REMARK   45  A    between atoms: _115  and  _117
REMARK   46  A    between atoms: _117  and  _118
REMARK   47  A    between atoms: _117  and  _120
REMARK   48  A    between atoms: _120  and  _121
REMARK   49  A    between atoms: _124  and  _126
REMARK   50  A    between atoms: _126  and  _127
REMARK   51  A    between atoms: _126  and  _129
REMARK   52  A    between atoms: _129  and  _130
REMARK   53  A    between atoms: _135  and  _137
REMARK   54  A    between atoms: _137  and  _138
REMARK   55  A    between atoms: _137  and  _140
REMARK   56  A    between atoms: _140  and  _141
REMARK   57  A    between atoms: _147  and  _149
REMARK   58  A    between atoms: _149  and  _150
REMARK   59  A    between atoms: _149  and  _152
REMARK   60  A    between atoms: _152  and  _153
REMARK   61  A    between atoms: _159  and  _161
REMARK   62  A    between atoms: _161  and  _162
REMARK   63  A    between atoms: _161  and  _164
REMARK   64  A    between atoms: _164  and  _165
REMARK   65  A    between atoms: _165  and  _166
REMARK   66  A    between atoms: _169  and  _171
REMARK   67  A    between atoms: _171  and  _172
REMARK   68  A    between atoms: _171  and  _174
REMARK   69  A    between atoms: _174  and  _175
REMARK   70  A    between atoms: _175  and  _176
REMARK   71  A    between atoms: _176  and  _177
REMARK   72  A    between atoms: _186  and  _188
REMARK   73  A    between atoms: _188  and  _189
REMARK   74  A    between atoms: _188  and  _191
REMARK   75  A    between atoms: _191  and  _192
REMARK   76  A    between atoms: _197  and  _199
REMARK   77  A    between atoms: _199  and  _200
REMARK   78  A    between atoms: _199  and  _202
REMARK   79  A    between atoms: _202  and  _203
REMARK   80  A    between atoms: _206  and  _208
REMARK   81  A    between atoms: _208  and  _209
REMARK   82  A    between atoms: _208  and  _211
REMARK   83  A    between atoms: _211  and  _212
REMARK   84  A    between atoms: _215  and  _217
REMARK   85  A    between atoms: _217  and  _218
REMARK   86  A    between atoms: _217  and  _220
REMARK   87  A    between atoms: _220  and  _221
REMARK   88  A    between atoms: _226  and  _228
REMARK   89  A    between atoms: _228  and  _229
REMARK   90  A    between atoms: _228  and  _231
REMARK   91  A    between atoms: _231  and  _232
REMARK   92  A    between atoms: _237  and  _238
REMARK   93  A    between atoms: _240  and  _242
REMARK   94  A    between atoms: _242  and  _243
REMARK   95  A    between atoms: _242  and  _245
REMARK   96  A    between atoms: _245  and  _246
REMARK   97  A    between atoms: _249  and  _251
REMARK   98  A    between atoms: _251  and  _252
REMARK   99  A    between atoms: _251  and  _254
REMARK  100  A    between atoms: _254  and  _255
REMARK  101  A    between atoms: _260  and  _262
REMARK  102  A    between atoms: _262  and  _263
REMARK  103  A    between atoms: _262  and  _265
REMARK  104  A    between atoms: _265  and  _266
REMARK  105  A    between atoms: _271  and  _273
REMARK  106  A    between atoms: _273  and  _274
REMARK  107  A    between atoms: _273  and  _276
REMARK  108  A    between atoms: _276  and  _277
REMARK  109  A    between atoms: _280  and  _282
REMARK  110  A    between atoms: _282  and  _283
REMARK  111  A    between atoms: _282  and  _285
REMARK  112  A    between atoms: _288  and  _290
REMARK  113  A    between atoms: _290  and  _291
REMARK  114  A    between atoms: _290  and  _293
REMARK  115  A    between atoms: _293  and  _294
REMARK  116  A    between atoms: _297  and  _299
REMARK  117  A    between atoms: _299  and  _300
REMARK  118  A    between atoms: _299  and  _302
REMARK  119  A    between atoms: _302  and  _303
REMARK  120  A    between atoms: _303  and  _304
REMARK  121  A    between atoms: _307  and  _309
REMARK  122  A    between atoms: _309  and  _310
REMARK  123  A    between atoms: _313  and  _315
REMARK  124  A    between atoms: _315  and  _316
REMARK  125  A    between atoms: _315  and  _318
REMARK  126  A    between atoms: _318  and  _319
REMARK  127  A    between atoms: _322  and  _324
REMARK  128  A    between atoms: _324  and  _325
REMARK  129  A    between atoms: _324  and  _327
REMARK  130  A    between atoms: _327  and  _328
REMARK  131  A    between atoms: _328  and  _329
REMARK  132  A    between atoms: _332  and  _334
REMARK  133  A    between atoms: _334  and  _335
REMARK  134  A    between atoms: _334  and  _337
REMARK  135  A    between atoms: _337  and  _338
REMARK  136  A    between atoms: _343  and  _345
REMARK  137  A    between atoms: _345  and  _346
REMARK  138  A    between atoms: _348  and  _350
REMARK  139  A    between atoms: _350  and  _351
REMARK  140  A    between atoms: _350  and  _353
REMARK  141  A    between atoms: _356  and  _358
REMARK  142  A    between atoms: _358  and  _359
REMARK  143  A    between atoms: _362  and  _364
REMARK  144  A    between atoms: _364  and  _365
REMARK  145  A    between atoms: _364  and  _367
REMARK  146  A    between atoms: _367  and  _368
REMARK  147  A    between atoms: _373  and  _375
REMARK  148  A    between atoms: _375  and  _376
REMARK  149  A    between atoms: _375  and  _378
REMARK  150  A    between atoms: _378  and  _379
REMARK  151  A    between atoms: _379  and  _380
REMARK  152  A    between atoms: _380  and  _381
REMARK  153  A    between atoms: _381  and  _382
REMARK  154  A    between atoms: _386  and  _388
REMARK  155  A    between atoms: _388  and  _389
REMARK  156  A    between atoms: _388  and  _391
REMARK  157  A    between atoms: _391  and  _392
REMARK  158  A    between atoms: _395  and  _397
REMARK  159  A    between atoms: _397  and  _398
REMARK  160  A    between atoms: _397  and  _400
REMARK  161  A    between atoms: _400  and  _401
REMARK  162  A    between atoms: _406  and  _408
REMARK  163  A    between atoms: _408  and  _409
REMARK  164  A    between atoms: _411  and  _413
REMARK  165  A    between atoms: _413  and  _414
REMARK  166  A    between atoms: _413  and  _416
REMARK  167  A    between atoms: _416  and  _417
REMARK  168  A    between atoms: _417  and  _418
REMARK  169  A    between atoms: _418  and  _419
REMARK  170  A    between atoms: _419  and  _420
REMARK  171  A    between atoms: _424  and  _426
REMARK  172  A    between atoms: _426  and  _427
REMARK  173  A    between atoms: _426  and  _429
REMARK  174  A    between atoms: _429  and  _430
REMARK  175  A    between atoms: _430  and  _431
REMARK  176  A    between atoms: _431  and  _432
REMARK  177  A    between atoms: _441  and  _443
REMARK  178  A    between atoms: _443  and  _444
REMARK  179  A    between atoms: _443  and  _446
REMARK  180  A    between atoms: _446  and  _447
REMARK  181  A    between atoms: _452  and  _454
REMARK  182  A    between atoms: _454  and  _455
REMARK  183  A    between atoms: _454  and  _457
REMARK  184  A    between atoms: _457  and  _458
REMARK  185  A    between atoms: _463  and  _464
REMARK  186  A    between atoms: _466  and  _468
REMARK  187  A    between atoms: _468  and  _469
REMARK  188  A    between atoms: _468  and  _471
REMARK  189  A    between atoms: _471  and  _472
REMARK  190  A    between atoms: _472  and  _473
REMARK  191  A    between atoms: _473  and  _474
REMARK  192  A    between atoms: _474  and  _475
REMARK  193  A    between atoms: _479  and  _481
REMARK  194  A    between atoms: _481  and  _482
REMARK  195  A    between atoms: _481  and  _484
REMARK  196  A    between atoms: _484  and  _485
REMARK  197  A    between atoms: _487  and  _489
REMARK  198  A    between atoms: _489  and  _490
REMARK  199  A    between atoms: _489  and  _492
REMARK  200  A    between atoms: _492  and  _493
REMARK  201  A    between atoms: _496  and  _498
REMARK  202  A    between atoms: _498  and  _499
REMARK  203  A    between atoms: _498  and  _501
REMARK  204  A    between atoms: _501  and  _502
REMARK  205  A    between atoms: _502  and  _503
REMARK  206  A    between atoms: _506  and  _508
REMARK  207  A    between atoms: _508  and  _509
REMARK  208  A    between atoms: _512  and  _514
REMARK  209  A    between atoms: _514  and  _515
REMARK  210  A    between atoms: _514  and  _517
REMARK  211  A    between atoms: _517  and  _518
REMARK  212  A    between atoms: _520  and  _522
REMARK  213  A    between atoms: _522  and  _523
REMARK  214  A    between atoms: _525  and  _527
REMARK  215  A    between atoms: _527  and  _528
REMARK  216  A    between atoms: _527  and  _530
REMARK  217  A    between atoms: _530  and  _531
REMARK  218  A    between atoms: _534  and  _536
REMARK  219  A    between atoms: _536  and  _537
REMARK  220  A    between atoms: _539  and  _541
REMARK  221  A    between atoms: _541  and  _542
REMARK  222  A    between atoms: _541  and  _544
REMARK  223  A    between atoms: _544  and  _545
REMARK  224  A    between atoms: _550  and  _552
REMARK  225  A    between atoms: _552  and  _553
REMARK  226  A    between atoms: _552  and  _555
REMARK  227  A    between atoms: _555  and  _556
REMARK  228  A    between atoms: _556  and  _557
REMARK  229  A    between atoms: _564  and  _565
REMARK  230  A    between atoms: _565  and  _581
REMARK  231  A    between atoms: _566  and  _568
REMARK  232  A    between atoms: _568  and  _569
REMARK  233  A    between atoms: _569  and  _570
REMARK  234  A    between atoms: _574  and  _576
REMARK  235  A    between atoms: _576  and  _577
REMARK  236  A    between atoms: _576  and  _584
REMARK  237  A    between atoms: _577  and  _578
REMARK  238  A    between atoms: _578  and  _579
REMARK  239  A    between atoms: _579  and  _580
REMARK  240  A    between atoms: _580  and  _581
REMARK  241  A    between atoms: _586  and  _588
REMARK  242  A    between atoms: _588  and  _589
REMARK  243  A    between atoms: _588  and  _591
REMARK  244  A    between atoms: _591  and  _592
REMARK  245  A    between atoms: _595  and  _597
REMARK  246  A    between atoms: _597  and  _598
REMARK  247  A    between atoms: _600  and  _602
REMARK  248  A    between atoms: _602  and  _603
REMARK  249  A    between atoms: _606  and  _608
REMARK  250  A    between atoms: _608  and  _609
REMARK  251  A    between atoms: _608  and  _611
REMARK  252  A    between atoms: _611  and  _612
REMARK  253  A    between atoms: _617  and  _618
REMARK                            x       y       z     vdW  Elec       q    Type
REMARK                         _______ _______ _______ _____ _____    ______ ____
ROOT
ATOM      1  O   HOH     1      26.733  19.098  28.747  0.00  0.00    +0.000 OA
ENDROOT
TORSDOF 0
REMARK  Name = ../refined-set-2016/3g2h/3g2h_pocket.pdb
REMARK  253 active torsions:
REMARK  status: ('A' for Active; 'I' for Inactive)
REMARK    1  A    between atoms: _1  and  _3
REMARK    2  A    between atoms: _3  and  _4
REMARK    3  A    between atoms: _3  and  _6
REMARK    4  A    between atoms: _6  and  _7
REMARK    5  A    between atoms: _12  and  _13
REMARK    6  A    between atoms: _15  and  _17
REMARK    7  A    between atoms: _17  and  _18
REMARK    8  A    between atoms: _17  and  _20
REMARK    9  A    between atoms: _20  and  _21
REMARK   10  A    between atoms: _21  and  _22
REMARK   11  A    between atoms: _25  and  _27
REMARK   12  A    between atoms: _27  and  _28
REMARK   13  A    between atoms: _27  and  _30
REMARK   14  A    between atoms: _30  and  _31
REMARK   15  A    between atoms: _36  and  _38
REMARK   16  A    between atoms: _38  and  _39
REMARK   17  A    between atoms: _41  and  _43
REMARK   18  A    between atoms: _43  and  _44
REMARK   19  A    between atoms: _46  and  _48
REMARK   20  A    between atoms: _48  and  _49
REMARK   21  A    between atoms: _48  and  _51
REMARK   22  A    between atoms: _51  and  _52
REMARK   23  A    between atoms: _55  and  _57
REMARK   24  A    between atoms: _57  and  _58
REMARK   25  A    between atoms: _60  and  _62
REMARK   26  A    between atoms: _62  and  _63
REMARK   27  A    between atoms: _62  and  _65
REMARK   28  A    between atoms: _65  and  _66
REMARK   29  A    between atoms: _66  and  _67
REMARK   30  A    between atoms: _67  and  _68
REMARK   31  A    between atoms: _77  and  _79
REMARK   32  A    between atoms: _79  and  _80
REMARK   33  A    between atoms: _79  and  _82
REMARK   34  A    between atoms: _82  and  _83
REMARK   35  A    between atoms: _86  and  _88
REMARK   36  A    between atoms: _88  and  _89
REMARK   37  A    between atoms: _92  and  _94
REMARK   38  A    between atoms: _94  and  _95
REMARK   39  A    between atoms: _94  and  _97
REMARK   40  A    between atoms: _97  and  _98
REMARK   41  A    between atoms: _104  and  _106
REMARK   42  A    between atoms: _106  and  _107
REMARK   43  A    between atoms: _106  and  _109
REMARK   44  A    between atoms: _109  and  _110
REMARK   45  A    between atoms: _115  and  _117
REMARK   46  A    between atoms: _117  and  _118
REMARK   47  A    between atoms: _117  and  _120
REMARK   48  A    between atoms: _120  and  _121
REMARK   49  A    between atoms: _124  and  _126
REMARK   50  A    between atoms: _126  and  _127
REMARK   51  A    between atoms: _126  and  _129
REMARK   52  A    between atoms: _129  and  _130
REMARK   53  A    between atoms: _135  and  _137
REMARK   54  A    between atoms: _137  and  _138
REMARK   55  A    between atoms: _137  and  _140
REMARK   56  A    between atoms: _140  and  _141
REMARK   57  A    between atoms: _147  and  _149
REMARK   58  A    between atoms: _149  and  _150
REMARK   59  A    between atoms: _149  and  _152
REMARK   60  A    between atoms: _152  and  _153
REMARK   61  A    between atoms: _159  and  _161
REMARK   62  A    between atoms: _161  and  _162
REMARK   63  A    between atoms: _161  and  _164
REMARK   64  A    between atoms: _164  and  _165
REMARK   65  A    between atoms: _165  and  _166
REMARK   66  A    between atoms: _169  and  _171
REMARK   67  A    between atoms: _171  and  _172
REMARK   68  A    between atoms: _171  and  _174
REMARK   69  A    between atoms: _174  and  _175
REMARK   70  A    between atoms: _175  and  _176
REMARK   71  A    between atoms: _176  and  _177
REMARK   72  A    between atoms: _186  and  _188
REMARK   73  A    between atoms: _188  and  _189
REMARK   74  A    between atoms: _188  and  _191
REMARK   75  A    between atoms: _191  and  _192
REMARK   76  A    between atoms: _197  and  _199
REMARK   77  A    between atoms: _199  and  _200
REMARK   78  A    between atoms: _199  and  _202
REMARK   79  A    between atoms: _202  and  _203
REMARK   80  A    between atoms: _206  and  _208
REMARK   81  A    between atoms: _208  and  _209
REMARK   82  A    between atoms: _208  and  _211
REMARK   83  A    between atoms: _211  and  _212
REMARK   84  A    between atoms: _215  and  _217
REMARK   85  A    between atoms: _217  and  _218
REMARK   86  A    between atoms: _217  and  _220
REMARK   87  A    between atoms: _220  and  _221
REMARK   88  A    between atoms: _226  and  _228
REMARK   89  A    between atoms: _228  and  _229
REMARK   90  A    between atoms: _228  and  _231
REMARK   91  A    between atoms: _231  and  _232
REMARK   92  A    between atoms: _237  and  _238
REMARK   93  A    between atoms: _240  and  _242
REMARK   94  A    between atoms: _242  and  _243
REMARK   95  A    between atoms: _242  and  _245
REMARK   96  A    between atoms: _245  and  _246
REMARK   97  A    between atoms: _249  and  _251
REMARK   98  A    between atoms: _251  and  _252
REMARK   99  A    between atoms: _251  and  _254
REMARK  100  A    between atoms: _254  and  _255
REMARK  101  A    between atoms: _260  and  _262
REMARK  102  A    between atoms: _262  and  _263
REMARK  103  A    between atoms: _262  and  _265
REMARK  104  A    between atoms: _265  and  _266
REMARK  105  A    between atoms: _271  and  _273
REMARK  106  A    between atoms: _273  and  _274
REMARK  107  A    between atoms: _273  and  _276
REMARK  108  A    between atoms: _276  and  _277
REMARK  109  A    between atoms: _280  and  _282
REMARK  110  A    between atoms: _282  and  _283
REMARK  111  A    between atoms: _282  and  _285
REMARK  112  A    between atoms: _288  and  _290
REMARK  113  A    between atoms: _290  and  _291
REMARK  114  A    between atoms: _290  and  _293
REMARK  115  A    between atoms: _293  and  _294
REMARK  116  A    between atoms: _297  and  _299
REMARK  117  A    between atoms: _299  and  _300
REMARK  118  A    between atoms: _299  and  _302
REMARK  119  A    between atoms: _302  and  _303
REMARK  120  A    between atoms: _303  and  _304
REMARK  121  A    between atoms: _307  and  _309
REMARK  122  A    between atoms: _309  and  _310
REMARK  123  A    between atoms: _313  and  _315
REMARK  124  A    between atoms: _315  and  _316
REMARK  125  A    between atoms: _315  and  _318
REMARK  126  A    between atoms: _318  and  _319
REMARK  127  A    between atoms: _322  and  _324
REMARK  128  A    between atoms: _324  and  _325
REMARK  129  A    between atoms: _324  and  _327
REMARK  130  A    between atoms: _327  and  _328
REMARK  131  A    between atoms: _328  and  _329
REMARK  132  A    between atoms: _332  and  _334
REMARK  133  A    between atoms: _334  and  _335
REMARK  134  A    between atoms: _334  and  _337
REMARK  135  A    between atoms: _337  and  _338
REMARK  136  A    between atoms: _343  and  _345
REMARK  137  A    between atoms: _345  and  _346
REMARK  138  A    between atoms: _348  and  _350
REMARK  139  A    between atoms: _350  and  _351
REMARK  140  A    between atoms: _350  and  _353
REMARK  141  A    between atoms: _356  and  _358
REMARK  142  A    between atoms: _358  and  _359
REMARK  143  A    between atoms: _362  and  _364
REMARK  144  A    between atoms: _364  and  _365
REMARK  145  A    between atoms: _364  and  _367
REMARK  146  A    between atoms: _367  and  _368
REMARK  147  A    between atoms: _373  and  _375
REMARK  148  A    between atoms: _375  and  _376
REMARK  149  A    between atoms: _375  and  _378
REMARK  150  A    between atoms: _378  and  _379
REMARK  151  A    between atoms: _379  and  _380
REMARK  152  A    between atoms: _380  and  _381
REMARK  153  A    between atoms: _381  and  _382
REMARK  154  A    between atoms: _386  and  _388
REMARK  155  A    between atoms: _388  and  _389
REMARK  156  A    between atoms: _388  and  _391
REMARK  157  A    between atoms: _391  and  _392
REMARK  158  A    between atoms: _395  and  _397
REMARK  159  A    between atoms: _397  and  _398
REMARK  160  A    between atoms: _397  and  _400
REMARK  161  A    between atoms: _400  and  _401
REMARK  162  A    between atoms: _406  and  _408
REMARK  163  A    between atoms: _408  and  _409
REMARK  164  A    between atoms: _411  and  _413
REMARK  165  A    between atoms: _413  and  _414
REMARK  166  A    between atoms: _413  and  _416
REMARK  167  A    between atoms: _416  and  _417
REMARK  168  A    between atoms: _417  and  _418
REMARK  169  A    between atoms: _418  and  _419
REMARK  170  A    between atoms: _419  and  _420
REMARK  171  A    between atoms: _424  and  _426
REMARK  172  A    between atoms: _426  and  _427
REMARK  173  A    between atoms: _426  and  _429
REMARK  174  A    between atoms: _429  and  _430
REMARK  175  A    between atoms: _430  and  _431
REMARK  176  A    between atoms: _431  and  _432
REMARK  177  A    between atoms: _441  and  _443
REMARK  178  A    between atoms: _443  and  _444
REMARK  179  A    between atoms: _443  and  _446
REMARK  180  A    between atoms: _446  and  _447
REMARK  181  A    between atoms: _452  and  _454
REMARK  182  A    between atoms: _454  and  _455
REMARK  183  A    between atoms: _454  and  _457
REMARK  184  A    between atoms: _457  and  _458
REMARK  185  A    between atoms: _463  and  _464
REMARK  186  A    between atoms: _466  and  _468
REMARK  187  A    between atoms: _468  and  _469
REMARK  188  A    between atoms: _468  and  _471
REMARK  189  A    between atoms: _471  and  _472
REMARK  190  A    between atoms: _472  and  _473
REMARK  191  A    between atoms: _473  and  _474
REMARK  192  A    between atoms: _474  and  _475
REMARK  193  A    between atoms: _479  and  _481
REMARK  194  A    between atoms: _481  and  _482
REMARK  195  A    between atoms: _481  and  _484
REMARK  196  A    between atoms: _484  and  _485
REMARK  197  A    between atoms: _487  and  _489
REMARK  198  A    between atoms: _489  and  _490
REMARK  199  A    between atoms: _489  and  _492
REMARK  200  A    between atoms: _492  and  _493
REMARK  201  A    between atoms: _496  and  _498
REMARK  202  A    between atoms: _498  and  _499
REMARK  203  A    between atoms: _498  and  _501
REMARK  204  A    between atoms: _501  and  _502
REMARK  205  A    between atoms: _502  and  _503
REMARK  206  A    between atoms: _506  and  _508
REMARK  207  A    between atoms: _508  and  _509
REMARK  208  A    between atoms: _512  and  _514
REMARK  209  A    between atoms: _514  and  _515
REMARK  210  A    between atoms: _514  and  _517
REMARK  211  A    between atoms: _517  and  _518
REMARK  212  A    between atoms: _520  and  _522
REMARK  213  A    between atoms: _522  and  _523
REMARK  214  A    between atoms: _525  and  _527
REMARK  215  A    between atoms: _527  and  _528
REMARK  216  A    between atoms: _527  and  _530
REMARK  217  A    between atoms: _530  and  _531
REMARK  218  A    between atoms: _534  and  _536
REMARK  219  A    between atoms: _536  and  _537
REMARK  220  A    between atoms: _539  and  _541
REMARK  221  A    between atoms: _541  and  _542
REMARK  222  A    between atoms: _541  and  _544
REMARK  223  A    between atoms: _544  and  _545
REMARK  224  A    between atoms: _550  and  _552
REMARK  225  A    between atoms: _552  and  _553
REMARK  226  A    between atoms: _552  and  _555
REMARK  227  A    between atoms: _555  and  _556
REMARK  228  A    between atoms: _556  and  _557
REMARK  229  A    between atoms: _564  and  _565
REMARK  230  A    between atoms: _565  and  _581
REMARK  231  A    between atoms: _566  and  _568
REMARK  232  A    between atoms: _568  and  _569
REMARK  233  A    between atoms: _569  and  _570
REMARK  234  A    between atoms: _574  and  _576
REMARK  235  A    between atoms: _576  and  _577
REMARK  236  A    between atoms: _576  and  _584
REMARK  237  A    between atoms: _577  and  _578
REMARK  238  A    between atoms: _578  and  _579
REMARK  239  A    between atoms: _579  and  _580
REMARK  240  A    between atoms: _580  and  _581
REMARK  241  A    between atoms: _586  and  _588
REMARK  242  A    between atoms: _588  and  _589
REMARK  243  A    between atoms: _588  and  _591
REMARK  244  A    between atoms: _591  and  _592
REMARK  245  A    between atoms: _595  and  _597
REMARK  246  A    between atoms: _597  and  _598
REMARK  247  A    between atoms: _600  and  _602
REMARK  248  A    between atoms: _602  and  _603
REMARK  249  A    between atoms: _606  and  _608
REMARK  250  A    between atoms: _608  and  _609
REMARK  251  A    between atoms: _608  and  _611
REMARK  252  A    between atoms: _611  and  _612
REMARK  253  A    between atoms: _617  and  _618
REMARK                            x       y       z     vdW  Elec       q    Type
REMARK                         _______ _______ _______ _____ _____    ______ ____
ROOT
ATOM      1  O   HOH     1      28.740  21.451  26.194  0.00  0.00    +0.000 OA
ENDROOT
TORSDOF 0
REMARK  Name = ../refined-set-2016/3g2h/3g2h_pocket.pdb
REMARK  253 active torsions:
REMARK  status: ('A' for Active; 'I' for Inactive)
REMARK    1  A    between atoms: _1  and  _3
REMARK    2  A    between atoms: _3  and  _4
REMARK    3  A    between atoms: _3  and  _6
REMARK    4  A    between atoms: _6  and  _7
REMARK    5  A    between atoms: _12  and  _13
REMARK    6  A    between atoms: _15  and  _17
REMARK    7  A    between atoms: _17  and  _18
REMARK    8  A    between atoms: _17  and  _20
REMARK    9  A    between atoms: _20  and  _21
REMARK   10  A    between atoms: _21  and  _22
REMARK   11  A    between atoms: _25  and  _27
REMARK   12  A    between atoms: _27  and  _28
REMARK   13  A    between atoms: _27  and  _30
REMARK   14  A    between atoms: _30  and  _31
REMARK   15  A    between atoms: _36  and  _38
REMARK   16  A    between atoms: _38  and  _39
REMARK   17  A    between atoms: _41  and  _43
REMARK   18  A    between atoms: _43  and  _44
REMARK   19  A    between atoms: _46  and  _48
REMARK   20  A    between atoms: _48  and  _49
REMARK   21  A    between atoms: _48  and  _51
REMARK   22  A    between atoms: _51  and  _52
REMARK   23  A    between atoms: _55  and  _57
REMARK   24  A    between atoms: _57  and  _58
REMARK   25  A    between atoms: _60  and  _62
REMARK   26  A    between atoms: _62  and  _63
REMARK   27  A    between atoms: _62  and  _65
REMARK   28  A    between atoms: _65  and  _66
REMARK   29  A    between atoms: _66  and  _67
REMARK   30  A    between atoms: _67  and  _68
REMARK   31  A    between atoms: _77  and  _79
REMARK   32  A    between atoms: _79  and  _80
REMARK   33  A    between atoms: _79  and  _82
REMARK   34  A    between atoms: _82  and  _83
REMARK   35  A    between atoms: _86  and  _88
REMARK   36  A    between atoms: _88  and  _89
REMARK   37  A    between atoms: _92  and  _94
REMARK   38  A    between atoms: _94  and  _95
REMARK   39  A    between atoms: _94  and  _97
REMARK   40  A    between atoms: _97  and  _98
REMARK   41  A    between atoms: _104  and  _106
REMARK   42  A    between atoms: _106  and  _107
REMARK   43  A    between atoms: _106  and  _109
REMARK   44  A    between atoms: _109  and  _110
REMARK   45  A    between atoms: _115  and  _117
REMARK   46  A    between atoms: _117  and  _118
REMARK   47  A    between atoms: _117  and  _120
REMARK   48  A    between atoms: _120  and  _121
REMARK   49  A    between atoms: _124  and  _126
REMARK   50  A    between atoms: _126  and  _127
REMARK   51  A    between atoms: _126  and  _129
REMARK   52  A    between atoms: _129  and  _130
REMARK   53  A    between atoms: _135  and  _137
REMARK   54  A    between atoms: _137  and  _138
REMARK   55  A    between atoms: _137  and  _140
REMARK   56  A    between atoms: _140  and  _141
REMARK   57  A    between atoms: _147  and  _149
REMARK   58  A    between atoms: _149  and  _150
REMARK   59  A    between atoms: _149  and  _152
REMARK   60  A    between atoms: _152  and  _153
REMARK   61  A    between atoms: _159  and  _161
REMARK   62  A    between atoms: _161  and  _162
REMARK   63  A    between atoms: _161  and  _164
REMARK   64  A    between atoms: _164  and  _165
REMARK   65  A    between atoms: _165  and  _166
REMARK   66  A    between atoms: _169  and  _171
REMARK   67  A    between atoms: _171  and  _172
REMARK   68  A    between atoms: _171  and  _174
REMARK   69  A    between atoms: _174  and  _175
REMARK   70  A    between atoms: _175  and  _176
REMARK   71  A    between atoms: _176  and  _177
REMARK   72  A    between atoms: _186  and  _188
REMARK   73  A    between atoms: _188  and  _189
REMARK   74  A    between atoms: _188  and  _191
REMARK   75  A    between atoms: _191  and  _192
REMARK   76  A    between atoms: _197  and  _199
REMARK   77  A    between atoms: _199  and  _200
REMARK   78  A    between atoms: _199  and  _202
REMARK   79  A    between atoms: _202  and  _203
REMARK   80  A    between atoms: _206  and  _208
REMARK   81  A    between atoms: _208  and  _209
REMARK   82  A    between atoms: _208  and  _211
REMARK   83  A    between atoms: _211  and  _212
REMARK   84  A    between atoms: _215  and  _217
REMARK   85  A    between atoms: _217  and  _218
REMARK   86  A    between atoms: _217  and  _220
REMARK   87  A    between atoms: _220  and  _221
REMARK   88  A    between atoms: _226  and  _228
REMARK   89  A    between atoms: _228  and  _229
REMARK   90  A    between atoms: _228  and  _231
REMARK   91  A    between atoms: _231  and  _232
REMARK   92  A    between atoms: _237  and  _238
REMARK   93  A    between atoms: _240  and  _242
REMARK   94  A    between atoms: _242  and  _243
REMARK   95  A    between atoms: _242  and  _245
REMARK   96  A    between atoms: _245  and  _246
REMARK   97  A    between atoms: _249  and  _251
REMARK   98  A    between atoms: _251  and  _252
REMARK   99  A    between atoms: _251  and  _254
REMARK  100  A    between atoms: _254  and  _255
REMARK  101  A    between atoms: _260  and  _262
REMARK  102  A    between atoms: _262  and  _263
REMARK  103  A    between atoms: _262  and  _265
REMARK  104  A    between atoms: _265  and  _266
REMARK  105  A    between atoms: _271  and  _273
REMARK  106  A    between atoms: _273  and  _274
REMARK  107  A    between atoms: _273  and  _276
REMARK  108  A    between atoms: _276  and  _277
REMARK  109  A    between atoms: _280  and  _282
REMARK  110  A    between atoms: _282  and  _283
REMARK  111  A    between atoms: _282  and  _285
REMARK  112  A    between atoms: _288  and  _290
REMARK  113  A    between atoms: _290  and  _291
REMARK  114  A    between atoms: _290  and  _293
REMARK  115  A    between atoms: _293  and  _294
REMARK  116  A    between atoms: _297  and  _299
REMARK  117  A    between atoms: _299  and  _300
REMARK  118  A    between atoms: _299  and  _302
REMARK  119  A    between atoms: _302  and  _303
REMARK  120  A    between atoms: _303  and  _304
REMARK  121  A    between atoms: _307  and  _309
REMARK  122  A    between atoms: _309  and  _310
REMARK  123  A    between atoms: _313  and  _315
REMARK  124  A    between atoms: _315  and  _316
REMARK  125  A    between atoms: _315  and  _318
REMARK  126  A    between atoms: _318  and  _319
REMARK  127  A    between atoms: _322  and  _324
REMARK  128  A    between atoms: _324  and  _325
REMARK  129  A    between atoms: _324  and  _327
REMARK  130  A    between atoms: _327  and  _328
REMARK  131  A    between atoms: _328  and  _329
REMARK  132  A    between atoms: _332  and  _334
REMARK  133  A    between atoms: _334  and  _335
REMARK  134  A    between atoms: _334  and  _337
REMARK  135  A    between atoms: _337  and  _338
REMARK  136  A    between atoms: _343  and  _345
REMARK  137  A    between atoms: _345  and  _346
REMARK  138  A    between atoms: _348  and  _350
REMARK  139  A    between atoms: _350  and  _351
REMARK  140  A    between atoms: _350  and  _353
REMARK  141  A    between atoms: _356  and  _358
REMARK  142  A    between atoms: _358  and  _359
REMARK  143  A    between atoms: _362  and  _364
REMARK  144  A    between atoms: _364  and  _365
REMARK  145  A    between atoms: _364  and  _367
REMARK  146  A    between atoms: _367  and  _368
REMARK  147  A    between atoms: _373  and  _375
REMARK  148  A    between atoms: _375  and  _376
REMARK  149  A    between atoms: _375  and  _378
REMARK  150  A    between atoms: _378  and  _379
REMARK  151  A    between atoms: _379  and  _380
REMARK  152  A    between atoms: _380  and  _381
REMARK  153  A    between atoms: _381  and  _382
REMARK  154  A    between atoms: _386  and  _388
REMARK  155  A    between atoms: _388  and  _389
REMARK  156  A    between atoms: _388  and  _391
REMARK  157  A    between atoms: _391  and  _392
REMARK  158  A    between atoms: _395  and  _397
REMARK  159  A    between atoms: _397  and  _398
REMARK  160  A    between atoms: _397  and  _400
REMARK  161  A    between atoms: _400  and  _401
REMARK  162  A    between atoms: _406  and  _408
REMARK  163  A    between atoms: _408  and  _409
REMARK  164  A    between atoms: _411  and  _413
REMARK  165  A    between atoms: _413  and  _414
REMARK  166  A    between atoms: _413  and  _416
REMARK  167  A    between atoms: _416  and  _417
REMARK  168  A    between atoms: _417  and  _418
REMARK  169  A    between atoms: _418  and  _419
REMARK  170  A    between atoms: _419  and  _420
REMARK  171  A    between atoms: _424  and  _426
REMARK  172  A    between atoms: _426  and  _427
REMARK  173  A    between atoms: _426  and  _429
REMARK  174  A    between atoms: _429  and  _430
REMARK  175  A    between atoms: _430  and  _431
REMARK  176  A    between atoms: _431  and  _432
REMARK  177  A    between atoms: _441  and  _443
REMARK  178  A    between atoms: _443  and  _444
REMARK  179  A    between atoms: _443  and  _446
REMARK  180  A    between atoms: _446  and  _447
REMARK  181  A    between atoms: _452  and  _454
REMARK  182  A    between atoms: _454  and  _455
REMARK  183  A    between atoms: _454  and  _457
REMARK  184  A    between atoms: _457  and  _458
REMARK  185  A    between atoms: _463  and  _464
REMARK  186  A    between atoms: _466  and  _468
REMARK  187  A    between atoms: _468  and  _469
REMARK  188  A    between atoms: _468  and  _471
REMARK  189  A    between atoms: _471  and  _472
REMARK  190  A    between atoms: _472  and  _473
REMARK  191  A    between atoms: _473  and  _474
REMARK  192  A    between atoms: _474  and  _475
REMARK  193  A    between atoms: _479  and  _481
REMARK  194  A    between atoms: _481  and  _482
REMARK  195  A    between atoms: _481  and  _484
REMARK  196  A    between atoms: _484  and  _485
REMARK  197  A    between atoms: _487  and  _489
REMARK  198  A    between atoms: _489  and  _490
REMARK  199  A    between atoms: _489  and  _492
REMARK  200  A    between atoms: _492  and  _493
REMARK  201  A    between atoms: _496  and  _498
REMARK  202  A    between atoms: _498  and  _499
REMARK  203  A    between atoms: _498  and  _501
REMARK  204  A    between atoms: _501  and  _502
REMARK  205  A    between atoms: _502  and  _503
REMARK  206  A    between atoms: _506  and  _508
REMARK  207  A    between atoms: _508  and  _509
REMARK  208  A    between atoms: _512  and  _514
REMARK  209  A    between atoms: _514  and  _515
REMARK  210  A    between atoms: _514  and  _517
REMARK  211  A    between atoms: _517  and  _518
REMARK  212  A    between atoms: _520  and  _522
REMARK  213  A    between atoms: _522  and  _523
REMARK  214  A    between atoms: _525  and  _527
REMARK  215  A    between atoms: _527  and  _528
REMARK  216  A    between atoms: _527  and  _530
REMARK  217  A    between atoms: _530  and  _531
REMARK  218  A    between atoms: _534  and  _536
REMARK  219  A    between atoms: _536  and  _537
REMARK  220  A    between atoms: _539  and  _541
REMARK  221  A    between atoms: _541  and  _542
REMARK  222  A    between atoms: _541  and  _544
REMARK  223  A    between atoms: _544  and  _545
REMARK  224  A    between atoms: _550  and  _552
REMARK  225  A    between atoms: _552  and  _553
REMARK  226  A    between atoms: _552  and  _555
REMARK  227  A    between atoms: _555  and  _556
REMARK  228  A    between atoms: _556  and  _557
REMARK  229  A    between atoms: _564  and  _565
REMARK  230  A    between atoms: _565  and  _581
REMARK  231  A    between atoms: _566  and  _568
REMARK  232  A    between atoms: _568  and  _569
REMARK  233  A    between atoms: _569  and  _570
REMARK  234  A    between atoms: _574  and  _576
REMARK  235  A    between atoms: _576  and  _577
REMARK  236  A    between atoms: _576  and  _584
REMARK  237  A    between atoms: _577  and  _578
REMARK  238  A    between atoms: _578  and  _579
REMARK  239  A    between atoms: _579  and  _580
REMARK  240  A    between atoms: _580  and  _581
REMARK  241  A    between atoms: _586  and  _588
REMARK  242  A    between atoms: _588  and  _589
REMARK  243  A    between atoms: _588  and  _591
REMARK  244  A    between atoms: _591  and  _592
REMARK  245  A    between atoms: _595  and  _597
REMARK  246  A    between atoms: _597  and  _598
REMARK  247  A    between atoms: _600  and  _602
REMARK  248  A    between atoms: _602  and  _603
REMARK  249  A    between atoms: _606  and  _608
REMARK  250  A    between atoms: _608  and  _609
REMARK  251  A    between atoms: _608  and  _611
REMARK  252  A    between atoms: _611  and  _612
REMARK  253  A    between atoms: _617  and  _618
REMARK                            x       y       z     vdW  Elec       q    Type
REMARK                         _______ _______ _______ _____ _____    ______ ____
ROOT
ATOM      1  O   HOH     1      40.607  29.070  38.017  0.00  0.00    +0.000 OA
ENDROOT
TORSDOF 0
REMARK  Name = ../refined-set-2016/3g2h/3g2h_pocket.pdb
REMARK  253 active torsions:
REMARK  status: ('A' for Active; 'I' for Inactive)
REMARK    1  A    between atoms: _1  and  _3
REMARK    2  A    between atoms: _3  and  _4
REMARK    3  A    between atoms: _3  and  _6
REMARK    4  A    between atoms: _6  and  _7
REMARK    5  A    between atoms: _12  and  _13
REMARK    6  A    between atoms: _15  and  _17
REMARK    7  A    between atoms: _17  and  _18
REMARK    8  A    between atoms: _17  and  _20
REMARK    9  A    between atoms: _20  and  _21
REMARK   10  A    between atoms: _21  and  _22
REMARK   11  A    between atoms: _25  and  _27
REMARK   12  A    between atoms: _27  and  _28
REMARK   13  A    between atoms: _27  and  _30
REMARK   14  A    between atoms: _30  and  _31
REMARK   15  A    between atoms: _36  and  _38
REMARK   16  A    between atoms: _38  and  _39
REMARK   17  A    between atoms: _41  and  _43
REMARK   18  A    between atoms: _43  and  _44
REMARK   19  A    between atoms: _46  and  _48
REMARK   20  A    between atoms: _48  and  _49
REMARK   21  A    between atoms: _48  and  _51
REMARK   22  A    between atoms: _51  and  _52
REMARK   23  A    between atoms: _55  and  _57
REMARK   24  A    between atoms: _57  and  _58
REMARK   25  A    between atoms: _60  and  _62
REMARK   26  A    between atoms: _62  and  _63
REMARK   27  A    between atoms: _62  and  _65
REMARK   28  A    between atoms: _65  and  _66
REMARK   29  A    between atoms: _66  and  _67
REMARK   30  A    between atoms: _67  and  _68
REMARK   31  A    between atoms: _77  and  _79
REMARK   32  A    between atoms: _79  and  _80
REMARK   33  A    between atoms: _79  and  _82
REMARK   34  A    between atoms: _82  and  _83
REMARK   35  A    between atoms: _86  and  _88
REMARK   36  A    between atoms: _88  and  _89
REMARK   37  A    between atoms: _92  and  _94
REMARK   38  A    between atoms: _94  and  _95
REMARK   39  A    between atoms: _94  and  _97
REMARK   40  A    between atoms: _97  and  _98
REMARK   41  A    between atoms: _104  and  _106
REMARK   42  A    between atoms: _106  and  _107
REMARK   43  A    between atoms: _106  and  _109
REMARK   44  A    between atoms: _109  and  _110
REMARK   45  A    between atoms: _115  and  _117
REMARK   46  A    between atoms: _117  and  _118
REMARK   47  A    between atoms: _117  and  _120
REMARK   48  A    between atoms: _120  and  _121
REMARK   49  A    between atoms: _124  and  _126
REMARK   50  A    between atoms: _126  and  _127
REMARK   51  A    between atoms: _126  and  _129
REMARK   52  A    between atoms: _129  and  _130
REMARK   53  A    between atoms: _135  and  _137
REMARK   54  A    between atoms: _137  and  _138
REMARK   55  A    between atoms: _137  and  _140
REMARK   56  A    between atoms: _140  and  _141
REMARK   57  A    between atoms: _147  and  _149
REMARK   58  A    between atoms: _149  and  _150
REMARK   59  A    between atoms: _149  and  _152
REMARK   60  A    between atoms: _152  and  _153
REMARK   61  A    between atoms: _159  and  _161
REMARK   62  A    between atoms: _161  and  _162
REMARK   63  A    between atoms: _161  and  _164
REMARK   64  A    between atoms: _164  and  _165
REMARK   65  A    between atoms: _165  and  _166
REMARK   66  A    between atoms: _169  and  _171
REMARK   67  A    between atoms: _171  and  _172
REMARK   68  A    between atoms: _171  and  _174
REMARK   69  A    between atoms: _174  and  _175
REMARK   70  A    between atoms: _175  and  _176
REMARK   71  A    between atoms: _176  and  _177
REMARK   72  A    between atoms: _186  and  _188
REMARK   73  A    between atoms: _188  and  _189
REMARK   74  A    between atoms: _188  and  _191
REMARK   75  A    between atoms: _191  and  _192
REMARK   76  A    between atoms: _197  and  _199
REMARK   77  A    between atoms: _199  and  _200
REMARK   78  A    between atoms: _199  and  _202
REMARK   79  A    between atoms: _202  and  _203
REMARK   80  A    between atoms: _206  and  _208
REMARK   81  A    between atoms: _208  and  _209
REMARK   82  A    between atoms: _208  and  _211
REMARK   83  A    between atoms: _211  and  _212
REMARK   84  A    between atoms: _215  and  _217
REMARK   85  A    between atoms: _217  and  _218
REMARK   86  A    between atoms: _217  and  _220
REMARK   87  A    between atoms: _220  and  _221
REMARK   88  A    between atoms: _226  and  _228
REMARK   89  A    between atoms: _228  and  _229
REMARK   90  A    between atoms: _228  and  _231
REMARK   91  A    between atoms: _231  and  _232
REMARK   92  A    between atoms: _237  and  _238
REMARK   93  A    between atoms: _240  and  _242
REMARK   94  A    between atoms: _242  and  _243
REMARK   95  A    between atoms: _242  and  _245
REMARK   96  A    between atoms: _245  and  _246
REMARK   97  A    between atoms: _249  and  _251
REMARK   98  A    between atoms: _251  and  _252
REMARK   99  A    between atoms: _251  and  _254
REMARK  100  A    between atoms: _254  and  _255
REMARK  101  A    between atoms: _260  and  _262
REMARK  102  A    between atoms: _262  and  _263
REMARK  103  A    between atoms: _262  and  _265
REMARK  104  A    between atoms: _265  and  _266
REMARK  105  A    between atoms: _271  and  _273
REMARK  106  A    between atoms: _273  and  _274
REMARK  107  A    between atoms: _273  and  _276
REMARK  108  A    between atoms: _276  and  _277
REMARK  109  A    between atoms: _280  and  _282
REMARK  110  A    between atoms: _282  and  _283
REMARK  111  A    between atoms: _282  and  _285
REMARK  112  A    between atoms: _288  and  _290
REMARK  113  A    between atoms: _290  and  _291
REMARK  114  A    between atoms: _290  and  _293
REMARK  115  A    between atoms: _293  and  _294
REMARK  116  A    between atoms: _297  and  _299
REMARK  117  A    between atoms: _299  and  _300
REMARK  118  A    between atoms: _299  and  _302
REMARK  119  A    between atoms: _302  and  _303
REMARK  120  A    between atoms: _303  and  _304
REMARK  121  A    between atoms: _307  and  _309
REMARK  122  A    between atoms: _309  and  _310
REMARK  123  A    between atoms: _313  and  _315
REMARK  124  A    between atoms: _315  and  _316
REMARK  125  A    between atoms: _315  and  _318
REMARK  126  A    between atoms: _318  and  _319
REMARK  127  A    between atoms: _322  and  _324
REMARK  128  A    between atoms: _324  and  _325
REMARK  129  A    between atoms: _324  and  _327
REMARK  130  A    between atoms: _327  and  _328
REMARK  131  A    between atoms: _328  and  _329
REMARK  132  A    between atoms: _332  and  _334
REMARK  133  A    between atoms: _334  and  _335
REMARK  134  A    between atoms: _334  and  _337
REMARK  135  A    between atoms: _337  and  _338
REMARK  136  A    between atoms: _343  and  _345
REMARK  137  A    between atoms: _345  and  _346
REMARK  138  A    between atoms: _348  and  _350
REMARK  139  A    between atoms: _350  and  _351
REMARK  140  A    between atoms: _350  and  _353
REMARK  141  A    between atoms: _356  and  _358
REMARK  142  A    between atoms: _358  and  _359
REMARK  143  A    between atoms: _362  and  _364
REMARK  144  A    between atoms: _364  and  _365
REMARK  145  A    between atoms: _364  and  _367
REMARK  146  A    between atoms: _367  and  _368
REMARK  147  A    between atoms: _373  and  _375
REMARK  148  A    between atoms: _375  and  _376
REMARK  149  A    between atoms: _375  and  _378
REMARK  150  A    between atoms: _378  and  _379
REMARK  151  A    between atoms: _379  and  _380
REMARK  152  A    between atoms: _380  and  _381
REMARK  153  A    between atoms: _381  and  _382
REMARK  154  A    between atoms: _386  and  _388
REMARK  155  A    between atoms: _388  and  _389
REMARK  156  A    between atoms: _388  and  _391
REMARK  157  A    between atoms: _391  and  _392
REMARK  158  A    between atoms: _395  and  _397
REMARK  159  A    between atoms: _397  and  _398
REMARK  160  A    between atoms: _397  and  _400
REMARK  161  A    between atoms: _400  and  _401
REMARK  162  A    between atoms: _406  and  _408
REMARK  163  A    between atoms: _408  and  _409
REMARK  164  A    between atoms: _411  and  _413
REMARK  165  A    between atoms: _413  and  _414
REMARK  166  A    between atoms: _413  and  _416
REMARK  167  A    between atoms: _416  and  _417
REMARK  168  A    between atoms: _417  and  _418
REMARK  169  A    between atoms: _418  and  _419
REMARK  170  A    between atoms: _419  and  _420
REMARK  171  A    between atoms: _424  and  _426
REMARK  172  A    between atoms: _426  and  _427
REMARK  173  A    between atoms: _426  and  _429
REMARK  174  A    between atoms: _429  and  _430
REMARK  175  A    between atoms: _430  and  _431
REMARK  176  A    between atoms: _431  and  _432
REMARK  177  A    between atoms: _441  and  _443
REMARK  178  A    between atoms: _443  and  _444
REMARK  179  A    between atoms: _443  and  _446
REMARK  180  A    between atoms: _446  and  _447
REMARK  181  A    between atoms: _452  and  _454
REMARK  182  A    between atoms: _454  and  _455
REMARK  183  A    between atoms: _454  and  _457
REMARK  184  A    between atoms: _457  and  _458
REMARK  185  A    between atoms: _463  and  _464
REMARK  186  A    between atoms: _466  and  _468
REMARK  187  A    between atoms: _468  and  _469
REMARK  188  A    between atoms: _468  and  _471
REMARK  189  A    between atoms: _471  and  _472
REMARK  190  A    between atoms: _472  and  _473
REMARK  191  A    between atoms: _473  and  _474
REMARK  192  A    between atoms: _474  and  _475
REMARK  193  A    between atoms: _479  and  _481
REMARK  194  A    between atoms: _481  and  _482
REMARK  195  A    between atoms: _481  and  _484
REMARK  196  A    between atoms: _484  and  _485
REMARK  197  A    between atoms: _487  and  _489
REMARK  198  A    between atoms: _489  and  _490
REMARK  199  A    between atoms: _489  and  _492
REMARK  200  A    between atoms: _492  and  _493
REMARK  201  A    between atoms: _496  and  _498
REMARK  202  A    between atoms: _498  and  _499
REMARK  203  A    between atoms: _498  and  _501
REMARK  204  A    between atoms: _501  and  _502
REMARK  205  A    between atoms: _502  and  _503
REMARK  206  A    between atoms: _506  and  _508
REMARK  207  A    between atoms: _508  and  _509
REMARK  208  A    between atoms: _512  and  _514
REMARK  209  A    between atoms: _514  and  _515
REMARK  210  A    between atoms: _514  and  _517
REMARK  211  A    between atoms: _517  and  _518
REMARK  212  A    between atoms: _520  and  _522
REMARK  213  A    between atoms: _522  and  _523
REMARK  214  A    between atoms: _525  and  _527
REMARK  215  A    between atoms: _527  and  _528
REMARK  216  A    between atoms: _527  and  _530
REMARK  217  A    between atoms: _530  and  _531
REMARK  218  A    between atoms: _534  and  _536
REMARK  219  A    between atoms: _536  and  _537
REMARK  220  A    between atoms: _539  and  _541
REMARK  221  A    between atoms: _541  and  _542
REMARK  222  A    between atoms: _541  and  _544
REMARK  223  A    between atoms: _544  and  _545
REMARK  224  A    between atoms: _550  and  _552
REMARK  225  A    between atoms: _552  and  _553
REMARK  226  A    between atoms: _552  and  _555
REMARK  227  A    between atoms: _555  and  _556
REMARK  228  A    between atoms: _556  and  _557
REMARK  229  A    between atoms: _564  and  _565
REMARK  230  A    between atoms: _565  and  _581
REMARK  231  A    between atoms: _566  and  _568
REMARK  232  A    between atoms: _568  and  _569
REMARK  233  A    between atoms: _569  and  _570
REMARK  234  A    between atoms: _574  and  _576
REMARK  235  A    between atoms: _576  and  _577
REMARK  236  A    between atoms: _576  and  _584
REMARK  237  A    between atoms: _577  and  _578
REMARK  238  A    between atoms: _578  and  _579
REMARK  239  A    between atoms: _579  and  _580
REMARK  240  A    between atoms: _580  and  _581
REMARK  241  A    between atoms: _586  and  _588
REMARK  242  A    between atoms: _588  and  _589
REMARK  243  A    between atoms: _588  and  _591
REMARK  244  A    between atoms: _591  and  _592
REMARK  245  A    between atoms: _595  and  _597
REMARK  246  A    between atoms: _597  and  _598
REMARK  247  A    between atoms: _600  and  _602
REMARK  248  A    between atoms: _602  and  _603
REMARK  249  A    between atoms: _606  and  _608
REMARK  250  A    between atoms: _608  and  _609
REMARK  251  A    between atoms: _608  and  _611
REMARK  252  A    between atoms: _611  and  _612
REMARK  253  A    between atoms: _617  and  _618
REMARK                            x       y       z     vdW  Elec       q    Type
REMARK                         _______ _______ _______ _____ _____    ______ ____
ROOT
ATOM      1  O   HOH     1      42.598  20.742  29.964  0.00  0.00    +0.000 OA
ENDROOT
TORSDOF 0
REMARK  Name = ../refined-set-2016/3g2h/3g2h_pocket.pdb
REMARK  253 active torsions:
REMARK  status: ('A' for Active; 'I' for Inactive)
REMARK    1  A    between atoms: _1  and  _3
REMARK    2  A    between atoms: _3  and  _4
REMARK    3  A    between atoms: _3  and  _6
REMARK    4  A    between atoms: _6  and  _7
REMARK    5  A    between atoms: _12  and  _13
REMARK    6  A    between atoms: _15  and  _17
REMARK    7  A    between atoms: _17  and  _18
REMARK    8  A    between atoms: _17  and  _20
REMARK    9  A    between atoms: _20  and  _21
REMARK   10  A    between atoms: _21  and  _22
REMARK   11  A    between atoms: _25  and  _27
REMARK   12  A    between atoms: _27  and  _28
REMARK   13  A    between atoms: _27  and  _30
REMARK   14  A    between atoms: _30  and  _31
REMARK   15  A    between atoms: _36  and  _38
REMARK   16  A    between atoms: _38  and  _39
REMARK   17  A    between atoms: _41  and  _43
REMARK   18  A    between atoms: _43  and  _44
REMARK   19  A    between atoms: _46  and  _48
REMARK   20  A    between atoms: _48  and  _49
REMARK   21  A    between atoms: _48  and  _51
REMARK   22  A    between atoms: _51  and  _52
REMARK   23  A    between atoms: _55  and  _57
REMARK   24  A    between atoms: _57  and  _58
REMARK   25  A    between atoms: _60  and  _62
REMARK   26  A    between atoms: _62  and  _63
REMARK   27  A    between atoms: _62  and  _65
REMARK   28  A    between atoms: _65  and  _66
REMARK   29  A    between atoms: _66  and  _67
REMARK   30  A    between atoms: _67  and  _68
REMARK   31  A    between atoms: _77  and  _79
REMARK   32  A    between atoms: _79  and  _80
REMARK   33  A    between atoms: _79  and  _82
REMARK   34  A    between atoms: _82  and  _83
REMARK   35  A    between atoms: _86  and  _88
REMARK   36  A    between atoms: _88  and  _89
REMARK   37  A    between atoms: _92  and  _94
REMARK   38  A    between atoms: _94  and  _95
REMARK   39  A    between atoms: _94  and  _97
REMARK   40  A    between atoms: _97  and  _98
REMARK   41  A    between atoms: _104  and  _106
REMARK   42  A    between atoms: _106  and  _107
REMARK   43  A    between atoms: _106  and  _109
REMARK   44  A    between atoms: _109  and  _110
REMARK   45  A    between atoms: _115  and  _117
REMARK   46  A    between atoms: _117  and  _118
REMARK   47  A    between atoms: _117  and  _120
REMARK   48  A    between atoms: _120  and  _121
REMARK   49  A    between atoms: _124  and  _126
REMARK   50  A    between atoms: _126  and  _127
REMARK   51  A    between atoms: _126  and  _129
REMARK   52  A    between atoms: _129  and  _130
REMARK   53  A    between atoms: _135  and  _137
REMARK   54  A    between atoms: _137  and  _138
REMARK   55  A    between atoms: _137  and  _140
REMARK   56  A    between atoms: _140  and  _141
REMARK   57  A    between atoms: _147  and  _149
REMARK   58  A    between atoms: _149  and  _150
REMARK   59  A    between atoms: _149  and  _152
REMARK   60  A    between atoms: _152  and  _153
REMARK   61  A    between atoms: _159  and  _161
REMARK   62  A    between atoms: _161  and  _162
REMARK   63  A    between atoms: _161  and  _164
REMARK   64  A    between atoms: _164  and  _165
REMARK   65  A    between atoms: _165  and  _166
REMARK   66  A    between atoms: _169  and  _171
REMARK   67  A    between atoms: _171  and  _172
REMARK   68  A    between atoms: _171  and  _174
REMARK   69  A    between atoms: _174  and  _175
REMARK   70  A    between atoms: _175  and  _176
REMARK   71  A    between atoms: _176  and  _177
REMARK   72  A    between atoms: _186  and  _188
REMARK   73  A    between atoms: _188  and  _189
REMARK   74  A    between atoms: _188  and  _191
REMARK   75  A    between atoms: _191  and  _192
REMARK   76  A    between atoms: _197  and  _199
REMARK   77  A    between atoms: _199  and  _200
REMARK   78  A    between atoms: _199  and  _202
REMARK   79  A    between atoms: _202  and  _203
REMARK   80  A    between atoms: _206  and  _208
REMARK   81  A    between atoms: _208  and  _209
REMARK   82  A    between atoms: _208  and  _211
REMARK   83  A    between atoms: _211  and  _212
REMARK   84  A    between atoms: _215  and  _217
REMARK   85  A    between atoms: _217  and  _218
REMARK   86  A    between atoms: _217  and  _220
REMARK   87  A    between atoms: _220  and  _221
REMARK   88  A    between atoms: _226  and  _228
REMARK   89  A    between atoms: _228  and  _229
REMARK   90  A    between atoms: _228  and  _231
REMARK   91  A    between atoms: _231  and  _232
REMARK   92  A    between atoms: _237  and  _238
REMARK   93  A    between atoms: _240  and  _242
REMARK   94  A    between atoms: _242  and  _243
REMARK   95  A    between atoms: _242  and  _245
REMARK   96  A    between atoms: _245  and  _246
REMARK   97  A    between atoms: _249  and  _251
REMARK   98  A    between atoms: _251  and  _252
REMARK   99  A    between atoms: _251  and  _254
REMARK  100  A    between atoms: _254  and  _255
REMARK  101  A    between atoms: _260  and  _262
REMARK  102  A    between atoms: _262  and  _263
REMARK  103  A    between atoms: _262  and  _265
REMARK  104  A    between atoms: _265  and  _266
REMARK  105  A    between atoms: _271  and  _273
REMARK  106  A    between atoms: _273  and  _274
REMARK  107  A    between atoms: _273  and  _276
REMARK  108  A    between atoms: _276  and  _277
REMARK  109  A    between atoms: _280  and  _282
REMARK  110  A    between atoms: _282  and  _283
REMARK  111  A    between atoms: _282  and  _285
REMARK  112  A    between atoms: _288  and  _290
REMARK  113  A    between atoms: _290  and  _291
REMARK  114  A    between atoms: _290  and  _293
REMARK  115  A    between atoms: _293  and  _294
REMARK  116  A    between atoms: _297  and  _299
REMARK  117  A    between atoms: _299  and  _300
REMARK  118  A    between atoms: _299  and  _302
REMARK  119  A    between atoms: _302  and  _303
REMARK  120  A    between atoms: _303  and  _304
REMARK  121  A    between atoms: _307  and  _309
REMARK  122  A    between atoms: _309  and  _310
REMARK  123  A    between atoms: _313  and  _315
REMARK  124  A    between atoms: _315  and  _316
REMARK  125  A    between atoms: _315  and  _318
REMARK  126  A    between atoms: _318  and  _319
REMARK  127  A    between atoms: _322  and  _324
REMARK  128  A    between atoms: _324  and  _325
REMARK  129  A    between atoms: _324  and  _327
REMARK  130  A    between atoms: _327  and  _328
REMARK  131  A    between atoms: _328  and  _329
REMARK  132  A    between atoms: _332  and  _334
REMARK  133  A    between atoms: _334  and  _335
REMARK  134  A    between atoms: _334  and  _337
REMARK  135  A    between atoms: _337  and  _338
REMARK  136  A    between atoms: _343  and  _345
REMARK  137  A    between atoms: _345  and  _346
REMARK  138  A    between atoms: _348  and  _350
REMARK  139  A    between atoms: _350  and  _351
REMARK  140  A    between atoms: _350  and  _353
REMARK  141  A    between atoms: _356  and  _358
REMARK  142  A    between atoms: _358  and  _359
REMARK  143  A    between atoms: _362  and  _364
REMARK  144  A    between atoms: _364  and  _365
REMARK  145  A    between atoms: _364  and  _367
REMARK  146  A    between atoms: _367  and  _368
REMARK  147  A    between atoms: _373  and  _375
REMARK  148  A    between atoms: _375  and  _376
REMARK  149  A    between atoms: _375  and  _378
REMARK  150  A    between atoms: _378  and  _379
REMARK  151  A    between atoms: _379  and  _380
REMARK  152  A    between atoms: _380  and  _381
REMARK  153  A    between atoms: _381  and  _382
REMARK  154  A    between atoms: _386  and  _388
REMARK  155  A    between atoms: _388  and  _389
REMARK  156  A    between atoms: _388  and  _391
REMARK  157  A    between atoms: _391  and  _392
REMARK  158  A    between atoms: _395  and  _397
REMARK  159  A    between atoms: _397  and  _398
REMARK  160  A    between atoms: _397  and  _400
REMARK  161  A    between atoms: _400  and  _401
REMARK  162  A    between atoms: _406  and  _408
REMARK  163  A    between atoms: _408  and  _409
REMARK  164  A    between atoms: _411  and  _413
REMARK  165  A    between atoms: _413  and  _414
REMARK  166  A    between atoms: _413  and  _416
REMARK  167  A    between atoms: _416  and  _417
REMARK  168  A    between atoms: _417  and  _418
REMARK  169  A    between atoms: _418  and  _419
REMARK  170  A    between atoms: _419  and  _420
REMARK  171  A    between atoms: _424  and  _426
REMARK  172  A    between atoms: _426  and  _427
REMARK  173  A    between atoms: _426  and  _429
REMARK  174  A    between atoms: _429  and  _430
REMARK  175  A    between atoms: _430  and  _431
REMARK  176  A    between atoms: _431  and  _432
REMARK  177  A    between atoms: _441  and  _443
REMARK  178  A    between atoms: _443  and  _444
REMARK  179  A    between atoms: _443  and  _446
REMARK  180  A    between atoms: _446  and  _447
REMARK  181  A    between atoms: _452  and  _454
REMARK  182  A    between atoms: _454  and  _455
REMARK  183  A    between atoms: _454  and  _457
REMARK  184  A    between atoms: _457  and  _458
REMARK  185  A    between atoms: _463  and  _464
REMARK  186  A    between atoms: _466  and  _468
REMARK  187  A    between atoms: _468  and  _469
REMARK  188  A    between atoms: _468  and  _471
REMARK  189  A    between atoms: _471  and  _472
REMARK  190  A    between atoms: _472  and  _473
REMARK  191  A    between atoms: _473  and  _474
REMARK  192  A    between atoms: _474  and  _475
REMARK  193  A    between atoms: _479  and  _481
REMARK  194  A    between atoms: _481  and  _482
REMARK  195  A    between atoms: _481  and  _484
REMARK  196  A    between atoms: _484  and  _485
REMARK  197  A    between atoms: _487  and  _489
REMARK  198  A    between atoms: _489  and  _490
REMARK  199  A    between atoms: _489  and  _492
REMARK  200  A    between atoms: _492  and  _493
REMARK  201  A    between atoms: _496  and  _498
REMARK  202  A    between atoms: _498  and  _499
REMARK  203  A    between atoms: _498  and  _501
REMARK  204  A    between atoms: _501  and  _502
REMARK  205  A    between atoms: _502  and  _503
REMARK  206  A    between atoms: _506  and  _508
REMARK  207  A    between atoms: _508  and  _509
REMARK  208  A    between atoms: _512  and  _514
REMARK  209  A    between atoms: _514  and  _515
REMARK  210  A    between atoms: _514  and  _517
REMARK  211  A    between atoms: _517  and  _518
REMARK  212  A    between atoms: _520  and  _522
REMARK  213  A    between atoms: _522  and  _523
REMARK  214  A    between atoms: _525  and  _527
REMARK  215  A    between atoms: _527  and  _528
REMARK  216  A    between atoms: _527  and  _530
REMARK  217  A    between atoms: _530  and  _531
REMARK  218  A    between atoms: _534  and  _536
REMARK  219  A    between atoms: _536  and  _537
REMARK  220  A    between atoms: _539  and  _541
REMARK  221  A    between atoms: _541  and  _542
REMARK  222  A    between atoms: _541  and  _544
REMARK  223  A    between atoms: _544  and  _545
REMARK  224  A    between atoms: _550  and  _552
REMARK  225  A    between atoms: _552  and  _553
REMARK  226  A    between atoms: _552  and  _555
REMARK  227  A    between atoms: _555  and  _556
REMARK  228  A    between atoms: _556  and  _557
REMARK  229  A    between atoms: _564  and  _565
REMARK  230  A    between atoms: _565  and  _581
REMARK  231  A    between atoms: _566  and  _568
REMARK  232  A    between atoms: _568  and  _569
REMARK  233  A    between atoms: _569  and  _570
REMARK  234  A    between atoms: _574  and  _576
REMARK  235  A    between atoms: _576  and  _577
REMARK  236  A    between atoms: _576  and  _584
REMARK  237  A    between atoms: _577  and  _578
REMARK  238  A    between atoms: _578  and  _579
REMARK  239  A    between atoms: _579  and  _580
REMARK  240  A    between atoms: _580  and  _581
REMARK  241  A    between atoms: _586  and  _588
REMARK  242  A    between atoms: _588  and  _589
REMARK  243  A    between atoms: _588  and  _591
REMARK  244  A    between atoms: _591  and  _592
REMARK  245  A    between atoms: _595  and  _597
REMARK  246  A    between atoms: _597  and  _598
REMARK  247  A    between atoms: _600  and  _602
REMARK  248  A    between atoms: _602  and  _603
REMARK  249  A    between atoms: _606  and  _608
REMARK  250  A    between atoms: _608  and  _609
REMARK  251  A    between atoms: _608  and  _611
REMARK  252  A    between atoms: _611  and  _612
REMARK  253  A    between atoms: _617  and  _618
REMARK                            x       y       z     vdW  Elec       q    Type
REMARK                         _______ _______ _______ _____ _____    ______ ____
ROOT
ATOM      1  O   HOH     1      32.551  25.506  32.531  0.00  0.00    +0.000 OA
ENDROOT
TORSDOF 0
REMARK  Name = ../refined-set-2016/3g2h/3g2h_pocket.pdb
REMARK  253 active torsions:
REMARK  status: ('A' for Active; 'I' for Inactive)
REMARK    1  A    between atoms: _1  and  _3
REMARK    2  A    between atoms: _3  and  _4
REMARK    3  A    between atoms: _3  and  _6
REMARK    4  A    between atoms: _6  and  _7
REMARK    5  A    between atoms: _12  and  _13
REMARK    6  A    between atoms: _15  and  _17
REMARK    7  A    between atoms: _17  and  _18
REMARK    8  A    between atoms: _17  and  _20
REMARK    9  A    between atoms: _20  and  _21
REMARK   10  A    between atoms: _21  and  _22
REMARK   11  A    between atoms: _25  and  _27
REMARK   12  A    between atoms: _27  and  _28
REMARK   13  A    between atoms: _27  and  _30
REMARK   14  A    between atoms: _30  and  _31
REMARK   15  A    between atoms: _36  and  _38
REMARK   16  A    between atoms: _38  and  _39
REMARK   17  A    between atoms: _41  and  _43
REMARK   18  A    between atoms: _43  and  _44
REMARK   19  A    between atoms: _46  and  _48
REMARK   20  A    between atoms: _48  and  _49
REMARK   21  A    between atoms: _48  and  _51
REMARK   22  A    between atoms: _51  and  _52
REMARK   23  A    between atoms: _55  and  _57
REMARK   24  A    between atoms: _57  and  _58
REMARK   25  A    between atoms: _60  and  _62
REMARK   26  A    between atoms: _62  and  _63
REMARK   27  A    between atoms: _62  and  _65
REMARK   28  A    between atoms: _65  and  _66
REMARK   29  A    between atoms: _66  and  _67
REMARK   30  A    between atoms: _67  and  _68
REMARK   31  A    between atoms: _77  and  _79
REMARK   32  A    between atoms: _79  and  _80
REMARK   33  A    between atoms: _79  and  _82
REMARK   34  A    between atoms: _82  and  _83
REMARK   35  A    between atoms: _86  and  _88
REMARK   36  A    between atoms: _88  and  _89
REMARK   37  A    between atoms: _92  and  _94
REMARK   38  A    between atoms: _94  and  _95
REMARK   39  A    between atoms: _94  and  _97
REMARK   40  A    between atoms: _97  and  _98
REMARK   41  A    between atoms: _104  and  _106
REMARK   42  A    between atoms: _106  and  _107
REMARK   43  A    between atoms: _106  and  _109
REMARK   44  A    between atoms: _109  and  _110
REMARK   45  A    between atoms: _115  and  _117
REMARK   46  A    between atoms: _117  and  _118
REMARK   47  A    between atoms: _117  and  _120
REMARK   48  A    between atoms: _120  and  _121
REMARK   49  A    between atoms: _124  and  _126
REMARK   50  A    between atoms: _126  and  _127
REMARK   51  A    between atoms: _126  and  _129
REMARK   52  A    between atoms: _129  and  _130
REMARK   53  A    between atoms: _135  and  _137
REMARK   54  A    between atoms: _137  and  _138
REMARK   55  A    between atoms: _137  and  _140
REMARK   56  A    between atoms: _140  and  _141
REMARK   57  A    between atoms: _147  and  _149
REMARK   58  A    between atoms: _149  and  _150
REMARK   59  A    between atoms: _149  and  _152
REMARK   60  A    between atoms: _152  and  _153
REMARK   61  A    between atoms: _159  and  _161
REMARK   62  A    between atoms: _161  and  _162
REMARK   63  A    between atoms: _161  and  _164
REMARK   64  A    between atoms: _164  and  _165
REMARK   65  A    between atoms: _165  and  _166
REMARK   66  A    between atoms: _169  and  _171
REMARK   67  A    between atoms: _171  and  _172
REMARK   68  A    between atoms: _171  and  _174
REMARK   69  A    between atoms: _174  and  _175
REMARK   70  A    between atoms: _175  and  _176
REMARK   71  A    between atoms: _176  and  _177
REMARK   72  A    between atoms: _186  and  _188
REMARK   73  A    between atoms: _188  and  _189
REMARK   74  A    between atoms: _188  and  _191
REMARK   75  A    between atoms: _191  and  _192
REMARK   76  A    between atoms: _197  and  _199
REMARK   77  A    between atoms: _199  and  _200
REMARK   78  A    between atoms: _199  and  _202
REMARK   79  A    between atoms: _202  and  _203
REMARK   80  A    between atoms: _206  and  _208
REMARK   81  A    between atoms: _208  and  _209
REMARK   82  A    between atoms: _208  and  _211
REMARK   83  A    between atoms: _211  and  _212
REMARK   84  A    between atoms: _215  and  _217
REMARK   85  A    between atoms: _217  and  _218
REMARK   86  A    between atoms: _217  and  _220
REMARK   87  A    between atoms: _220  and  _221
REMARK   88  A    between atoms: _226  and  _228
REMARK   89  A    between atoms: _228  and  _229
REMARK   90  A    between atoms: _228  and  _231
REMARK   91  A    between atoms: _231  and  _232
REMARK   92  A    between atoms: _237  and  _238
REMARK   93  A    between atoms: _240  and  _242
REMARK   94  A    between atoms: _242  and  _243
REMARK   95  A    between atoms: _242  and  _245
REMARK   96  A    between atoms: _245  and  _246
REMARK   97  A    between atoms: _249  and  _251
REMARK   98  A    between atoms: _251  and  _252
REMARK   99  A    between atoms: _251  and  _254
REMARK  100  A    between atoms: _254  and  _255
REMARK  101  A    between atoms: _260  and  _262
REMARK  102  A    between atoms: _262  and  _263
REMARK  103  A    between atoms: _262  and  _265
REMARK  104  A    between atoms: _265  and  _266
REMARK  105  A    between atoms: _271  and  _273
REMARK  106  A    between atoms: _273  and  _274
REMARK  107  A    between atoms: _273  and  _276
REMARK  108  A    between atoms: _276  and  _277
REMARK  109  A    between atoms: _280  and  _282
REMARK  110  A    between atoms: _282  and  _283
REMARK  111  A    between atoms: _282  and  _285
REMARK  112  A    between atoms: _288  and  _290
REMARK  113  A    between atoms: _290  and  _291
REMARK  114  A    between atoms: _290  and  _293
REMARK  115  A    between atoms: _293  and  _294
REMARK  116  A    between atoms: _297  and  _299
REMARK  117  A    between atoms: _299  and  _300
REMARK  118  A    between atoms: _299  and  _302
REMARK  119  A    between atoms: _302  and  _303
REMARK  120  A    between atoms: _303  and  _304
REMARK  121  A    between atoms: _307  and  _309
REMARK  122  A    between atoms: _309  and  _310
REMARK  123  A    between atoms: _313  and  _315
REMARK  124  A    between atoms: _315  and  _316
REMARK  125  A    between atoms: _315  and  _318
REMARK  126  A    between atoms: _318  and  _319
REMARK  127  A    between atoms: _322  and  _324
REMARK  128  A    between atoms: _324  and  _325
REMARK  129  A    between atoms: _324  and  _327
REMARK  130  A    between atoms: _327  and  _328
REMARK  131  A    between atoms: _328  and  _329
REMARK  132  A    between atoms: _332  and  _334
REMARK  133  A    between atoms: _334  and  _335
REMARK  134  A    between atoms: _334  and  _337
REMARK  135  A    between atoms: _337  and  _338
REMARK  136  A    between atoms: _343  and  _345
REMARK  137  A    between atoms: _345  and  _346
REMARK  138  A    between atoms: _348  and  _350
REMARK  139  A    between atoms: _350  and  _351
REMARK  140  A    between atoms: _350  and  _353
REMARK  141  A    between atoms: _356  and  _358
REMARK  142  A    between atoms: _358  and  _359
REMARK  143  A    between atoms: _362  and  _364
REMARK  144  A    between atoms: _364  and  _365
REMARK  145  A    between atoms: _364  and  _367
REMARK  146  A    between atoms: _367  and  _368
REMARK  147  A    between atoms: _373  and  _375
REMARK  148  A    between atoms: _375  and  _376
REMARK  149  A    between atoms: _375  and  _378
REMARK  150  A    between atoms: _378  and  _379
REMARK  151  A    between atoms: _379  and  _380
REMARK  152  A    between atoms: _380  and  _381
REMARK  153  A    between atoms: _381  and  _382
REMARK  154  A    between atoms: _386  and  _388
REMARK  155  A    between atoms: _388  and  _389
REMARK  156  A    between atoms: _388  and  _391
REMARK  157  A    between atoms: _391  and  _392
REMARK  158  A    between atoms: _395  and  _397
REMARK  159  A    between atoms: _397  and  _398
REMARK  160  A    between atoms: _397  and  _400
REMARK  161  A    between atoms: _400  and  _401
REMARK  162  A    between atoms: _406  and  _408
REMARK  163  A    between atoms: _408  and  _409
REMARK  164  A    between atoms: _411  and  _413
REMARK  165  A    between atoms: _413  and  _414
REMARK  166  A    between atoms: _413  and  _416
REMARK  167  A    between atoms: _416  and  _417
REMARK  168  A    between atoms: _417  and  _418
REMARK  169  A    between atoms: _418  and  _419
REMARK  170  A    between atoms: _419  and  _420
REMARK  171  A    between atoms: _424  and  _426
REMARK  172  A    between atoms: _426  and  _427
REMARK  173  A    between atoms: _426  and  _429
REMARK  174  A    between atoms: _429  and  _430
REMARK  175  A    between atoms: _430  and  _431
REMARK  176  A    between atoms: _431  and  _432
REMARK  177  A    between atoms: _441  and  _443
REMARK  178  A    between atoms: _443  and  _444
REMARK  179  A    between atoms: _443  and  _446
REMARK  180  A    between atoms: _446  and  _447
REMARK  181  A    between atoms: _452  and  _454
REMARK  182  A    between atoms: _454  and  _455
REMARK  183  A    between atoms: _454  and  _457
REMARK  184  A    between atoms: _457  and  _458
REMARK  185  A    between atoms: _463  and  _464
REMARK  186  A    between atoms: _466  and  _468
REMARK  187  A    between atoms: _468  and  _469
REMARK  188  A    between atoms: _468  and  _471
REMARK  189  A    between atoms: _471  and  _472
REMARK  190  A    between atoms: _472  and  _473
REMARK  191  A    between atoms: _473  and  _474
REMARK  192  A    between atoms: _474  and  _475
REMARK  193  A    between atoms: _479  and  _481
REMARK  194  A    between atoms: _481  and  _482
REMARK  195  A    between atoms: _481  and  _484
REMARK  196  A    between atoms: _484  and  _485
REMARK  197  A    between atoms: _487  and  _489
REMARK  198  A    between atoms: _489  and  _490
REMARK  199  A    between atoms: _489  and  _492
REMARK  200  A    between atoms: _492  and  _493
REMARK  201  A    between atoms: _496  and  _498
REMARK  202  A    between atoms: _498  and  _499
REMARK  203  A    between atoms: _498  and  _501
REMARK  204  A    between atoms: _501  and  _502
REMARK  205  A    between atoms: _502  and  _503
REMARK  206  A    between atoms: _506  and  _508
REMARK  207  A    between atoms: _508  and  _509
REMARK  208  A    between atoms: _512  and  _514
REMARK  209  A    between atoms: _514  and  _515
REMARK  210  A    between atoms: _514  and  _517
REMARK  211  A    between atoms: _517  and  _518
REMARK  212  A    between atoms: _520  and  _522
REMARK  213  A    between atoms: _522  and  _523
REMARK  214  A    between atoms: _525  and  _527
REMARK  215  A    between atoms: _527  and  _528
REMARK  216  A    between atoms: _527  and  _530
REMARK  217  A    between atoms: _530  and  _531
REMARK  218  A    between atoms: _534  and  _536
REMARK  219  A    between atoms: _536  and  _537
REMARK  220  A    between atoms: _539  and  _541
REMARK  221  A    between atoms: _541  and  _542
REMARK  222  A    between atoms: _541  and  _544
REMARK  223  A    between atoms: _544  and  _545
REMARK  224  A    between atoms: _550  and  _552
REMARK  225  A    between atoms: _552  and  _553
REMARK  226  A    between atoms: _552  and  _555
REMARK  227  A    between atoms: _555  and  _556
REMARK  228  A    between atoms: _556  and  _557
REMARK  229  A    between atoms: _564  and  _565
REMARK  230  A    between atoms: _565  and  _581
REMARK  231  A    between atoms: _566  and  _568
REMARK  232  A    between atoms: _568  and  _569
REMARK  233  A    between atoms: _569  and  _570
REMARK  234  A    between atoms: _574  and  _576
REMARK  235  A    between atoms: _576  and  _577
REMARK  236  A    between atoms: _576  and  _584
REMARK  237  A    between atoms: _577  and  _578
REMARK  238  A    between atoms: _578  and  _579
REMARK  239  A    between atoms: _579  and  _580
REMARK  240  A    between atoms: _580  and  _581
REMARK  241  A    between atoms: _586  and  _588
REMARK  242  A    between atoms: _588  and  _589
REMARK  243  A    between atoms: _588  and  _591
REMARK  244  A    between atoms: _591  and  _592
REMARK  245  A    between atoms: _595  and  _597
REMARK  246  A    between atoms: _597  and  _598
REMARK  247  A    between atoms: _600  and  _602
REMARK  248  A    between atoms: _602  and  _603
REMARK  249  A    between atoms: _606  and  _608
REMARK  250  A    between atoms: _608  and  _609
REMARK  251  A    between atoms: _608  and  _611
REMARK  252  A    between atoms: _611  and  _612
REMARK  253  A    between atoms: _617  and  _618
REMARK                            x       y       z     vdW  Elec       q    Type
REMARK                         _______ _______ _______ _____ _____    ______ ____
ROOT
ATOM      1  O   HOH     1      30.482  25.358  26.490  0.00  0.00    +0.000 OA
ENDROOT
TORSDOF 0
REMARK  Name = ../refined-set-2016/3g2h/3g2h_pocket.pdb
REMARK  253 active torsions:
REMARK  status: ('A' for Active; 'I' for Inactive)
REMARK    1  A    between atoms: _1  and  _3
REMARK    2  A    between atoms: _3  and  _4
REMARK    3  A    between atoms: _3  and  _6
REMARK    4  A    between atoms: _6  and  _7
REMARK    5  A    between atoms: _12  and  _13
REMARK    6  A    between atoms: _15  and  _17
REMARK    7  A    between atoms: _17  and  _18
REMARK    8  A    between atoms: _17  and  _20
REMARK    9  A    between atoms: _20  and  _21
REMARK   10  A    between atoms: _21  and  _22
REMARK   11  A    between atoms: _25  and  _27
REMARK   12  A    between atoms: _27  and  _28
REMARK   13  A    between atoms: _27  and  _30
REMARK   14  A    between atoms: _30  and  _31
REMARK   15  A    between atoms: _36  and  _38
REMARK   16  A    between atoms: _38  and  _39
REMARK   17  A    between atoms: _41  and  _43
REMARK   18  A    between atoms: _43  and  _44
REMARK   19  A    between atoms: _46  and  _48
REMARK   20  A    between atoms: _48  and  _49
REMARK   21  A    between atoms: _48  and  _51
REMARK   22  A    between atoms: _51  and  _52
REMARK   23  A    between atoms: _55  and  _57
REMARK   24  A    between atoms: _57  and  _58
REMARK   25  A    between atoms: _60  and  _62
REMARK   26  A    between atoms: _62  and  _63
REMARK   27  A    between atoms: _62  and  _65
REMARK   28  A    between atoms: _65  and  _66
REMARK   29  A    between atoms: _66  and  _67
REMARK   30  A    between atoms: _67  and  _68
REMARK   31  A    between atoms: _77  and  _79
REMARK   32  A    between atoms: _79  and  _80
REMARK   33  A    between atoms: _79  and  _82
REMARK   34  A    between atoms: _82  and  _83
REMARK   35  A    between atoms: _86  and  _88
REMARK   36  A    between atoms: _88  and  _89
REMARK   37  A    between atoms: _92  and  _94
REMARK   38  A    between atoms: _94  and  _95
REMARK   39  A    between atoms: _94  and  _97
REMARK   40  A    between atoms: _97  and  _98
REMARK   41  A    between atoms: _104  and  _106
REMARK   42  A    between atoms: _106  and  _107
REMARK   43  A    between atoms: _106  and  _109
REMARK   44  A    between atoms: _109  and  _110
REMARK   45  A    between atoms: _115  and  _117
REMARK   46  A    between atoms: _117  and  _118
REMARK   47  A    between atoms: _117  and  _120
REMARK   48  A    between atoms: _120  and  _121
REMARK   49  A    between atoms: _124  and  _126
REMARK   50  A    between atoms: _126  and  _127
REMARK   51  A    between atoms: _126  and  _129
REMARK   52  A    between atoms: _129  and  _130
REMARK   53  A    between atoms: _135  and  _137
REMARK   54  A    between atoms: _137  and  _138
REMARK   55  A    between atoms: _137  and  _140
REMARK   56  A    between atoms: _140  and  _141
REMARK   57  A    between atoms: _147  and  _149
REMARK   58  A    between atoms: _149  and  _150
REMARK   59  A    between atoms: _149  and  _152
REMARK   60  A    between atoms: _152  and  _153
REMARK   61  A    between atoms: _159  and  _161
REMARK   62  A    between atoms: _161  and  _162
REMARK   63  A    between atoms: _161  and  _164
REMARK   64  A    between atoms: _164  and  _165
REMARK   65  A    between atoms: _165  and  _166
REMARK   66  A    between atoms: _169  and  _171
REMARK   67  A    between atoms: _171  and  _172
REMARK   68  A    between atoms: _171  and  _174
REMARK   69  A    between atoms: _174  and  _175
REMARK   70  A    between atoms: _175  and  _176
REMARK   71  A    between atoms: _176  and  _177
REMARK   72  A    between atoms: _186  and  _188
REMARK   73  A    between atoms: _188  and  _189
REMARK   74  A    between atoms: _188  and  _191
REMARK   75  A    between atoms: _191  and  _192
REMARK   76  A    between atoms: _197  and  _199
REMARK   77  A    between atoms: _199  and  _200
REMARK   78  A    between atoms: _199  and  _202
REMARK   79  A    between atoms: _202  and  _203
REMARK   80  A    between atoms: _206  and  _208
REMARK   81  A    between atoms: _208  and  _209
REMARK   82  A    between atoms: _208  and  _211
REMARK   83  A    between atoms: _211  and  _212
REMARK   84  A    between atoms: _215  and  _217
REMARK   85  A    between atoms: _217  and  _218
REMARK   86  A    between atoms: _217  and  _220
REMARK   87  A    between atoms: _220  and  _221
REMARK   88  A    between atoms: _226  and  _228
REMARK   89  A    between atoms: _228  and  _229
REMARK   90  A    between atoms: _228  and  _231
REMARK   91  A    between atoms: _231  and  _232
REMARK   92  A    between atoms: _237  and  _238
REMARK   93  A    between atoms: _240  and  _242
REMARK   94  A    between atoms: _242  and  _243
REMARK   95  A    between atoms: _242  and  _245
REMARK   96  A    between atoms: _245  and  _246
REMARK   97  A    between atoms: _249  and  _251
REMARK   98  A    between atoms: _251  and  _252
REMARK   99  A    between atoms: _251  and  _254
REMARK  100  A    between atoms: _254  and  _255
REMARK  101  A    between atoms: _260  and  _262
REMARK  102  A    between atoms: _262  and  _263
REMARK  103  A    between atoms: _262  and  _265
REMARK  104  A    between atoms: _265  and  _266
REMARK  105  A    between atoms: _271  and  _273
REMARK  106  A    between atoms: _273  and  _274
REMARK  107  A    between atoms: _273  and  _276
REMARK  108  A    between atoms: _276  and  _277
REMARK  109  A    between atoms: _280  and  _282
REMARK  110  A    between atoms: _282  and  _283
REMARK  111  A    between atoms: _282  and  _285
REMARK  112  A    between atoms: _288  and  _290
REMARK  113  A    between atoms: _290  and  _291
REMARK  114  A    between atoms: _290  and  _293
REMARK  115  A    between atoms: _293  and  _294
REMARK  116  A    between atoms: _297  and  _299
REMARK  117  A    between atoms: _299  and  _300
REMARK  118  A    between atoms: _299  and  _302
REMARK  119  A    between atoms: _302  and  _303
REMARK  120  A    between atoms: _303  and  _304
REMARK  121  A    between atoms: _307  and  _309
REMARK  122  A    between atoms: _309  and  _310
REMARK  123  A    between atoms: _313  and  _315
REMARK  124  A    between atoms: _315  and  _316
REMARK  125  A    between atoms: _315  and  _318
REMARK  126  A    between atoms: _318  and  _319
REMARK  127  A    between atoms: _322  and  _324
REMARK  128  A    between atoms: _324  and  _325
REMARK  129  A    between atoms: _324  and  _327
REMARK  130  A    between atoms: _327  and  _328
REMARK  131  A    between atoms: _328  and  _329
REMARK  132  A    between atoms: _332  and  _334
REMARK  133  A    between atoms: _334  and  _335
REMARK  134  A    between atoms: _334  and  _337
REMARK  135  A    between atoms: _337  and  _338
REMARK  136  A    between atoms: _343  and  _345
REMARK  137  A    between atoms: _345  and  _346
REMARK  138  A    between atoms: _348  and  _350
REMARK  139  A    between atoms: _350  and  _351
REMARK  140  A    between atoms: _350  and  _353
REMARK  141  A    between atoms: _356  and  _358
REMARK  142  A    between atoms: _358  and  _359
REMARK  143  A    between atoms: _362  and  _364
REMARK  144  A    between atoms: _364  and  _365
REMARK  145  A    between atoms: _364  and  _367
REMARK  146  A    between atoms: _367  and  _368
REMARK  147  A    between atoms: _373  and  _375
REMARK  148  A    between atoms: _375  and  _376
REMARK  149  A    between atoms: _375  and  _378
REMARK  150  A    between atoms: _378  and  _379
REMARK  151  A    between atoms: _379  and  _380
REMARK  152  A    between atoms: _380  and  _381
REMARK  153  A    between atoms: _381  and  _382
REMARK  154  A    between atoms: _386  and  _388
REMARK  155  A    between atoms: _388  and  _389
REMARK  156  A    between atoms: _388  and  _391
REMARK  157  A    between atoms: _391  and  _392
REMARK  158  A    between atoms: _395  and  _397
REMARK  159  A    between atoms: _397  and  _398
REMARK  160  A    between atoms: _397  and  _400
REMARK  161  A    between atoms: _400  and  _401
REMARK  162  A    between atoms: _406  and  _408
REMARK  163  A    between atoms: _408  and  _409
REMARK  164  A    between atoms: _411  and  _413
REMARK  165  A    between atoms: _413  and  _414
REMARK  166  A    between atoms: _413  and  _416
REMARK  167  A    between atoms: _416  and  _417
REMARK  168  A    between atoms: _417  and  _418
REMARK  169  A    between atoms: _418  and  _419
REMARK  170  A    between atoms: _419  and  _420
REMARK  171  A    between atoms: _424  and  _426
REMARK  172  A    between atoms: _426  and  _427
REMARK  173  A    between atoms: _426  and  _429
REMARK  174  A    between atoms: _429  and  _430
REMARK  175  A    between atoms: _430  and  _431
REMARK  176  A    between atoms: _431  and  _432
REMARK  177  A    between atoms: _441  and  _443
REMARK  178  A    between atoms: _443  and  _444
REMARK  179  A    between atoms: _443  and  _446
REMARK  180  A    between atoms: _446  and  _447
REMARK  181  A    between atoms: _452  and  _454
REMARK  182  A    between atoms: _454  and  _455
REMARK  183  A    between atoms: _454  and  _457
REMARK  184  A    between atoms: _457  and  _458
REMARK  185  A    between atoms: _463  and  _464
REMARK  186  A    between atoms: _466  and  _468
REMARK  187  A    between atoms: _468  and  _469
REMARK  188  A    between atoms: _468  and  _471
REMARK  189  A    between atoms: _471  and  _472
REMARK  190  A    between atoms: _472  and  _473
REMARK  191  A    between atoms: _473  and  _474
REMARK  192  A    between atoms: _474  and  _475
REMARK  193  A    between atoms: _479  and  _481
REMARK  194  A    between atoms: _481  and  _482
REMARK  195  A    between atoms: _481  and  _484
REMARK  196  A    between atoms: _484  and  _485
REMARK  197  A    between atoms: _487  and  _489
REMARK  198  A    between atoms: _489  and  _490
REMARK  199  A    between atoms: _489  and  _492
REMARK  200  A    between atoms: _492  and  _493
REMARK  201  A    between atoms: _496  and  _498
REMARK  202  A    between atoms: _498  and  _499
REMARK  203  A    between atoms: _498  and  _501
REMARK  204  A    between atoms: _501  and  _502
REMARK  205  A    between atoms: _502  and  _503
REMARK  206  A    between atoms: _506  and  _508
REMARK  207  A    between atoms: _508  and  _509
REMARK  208  A    between atoms: _512  and  _514
REMARK  209  A    between atoms: _514  and  _515
REMARK  210  A    between atoms: _514  and  _517
REMARK  211  A    between atoms: _517  and  _518
REMARK  212  A    between atoms: _520  and  _522
REMARK  213  A    between atoms: _522  and  _523
REMARK  214  A    between atoms: _525  and  _527
REMARK  215  A    between atoms: _527  and  _528
REMARK  216  A    between atoms: _527  and  _530
REMARK  217  A    between atoms: _530  and  _531
REMARK  218  A    between atoms: _534  and  _536
REMARK  219  A    between atoms: _536  and  _537
REMARK  220  A    between atoms: _539  and  _541
REMARK  221  A    between atoms: _541  and  _542
REMARK  222  A    between atoms: _541  and  _544
REMARK  223  A    between atoms: _544  and  _545
REMARK  224  A    between atoms: _550  and  _552
REMARK  225  A    between atoms: _552  and  _553
REMARK  226  A    between atoms: _552  and  _555
REMARK  227  A    between atoms: _555  and  _556
REMARK  228  A    between atoms: _556  and  _557
REMARK  229  A    between atoms: _564  and  _565
REMARK  230  A    between atoms: _565  and  _581
REMARK  231  A    between atoms: _566  and  _568
REMARK  232  A    between atoms: _568  and  _569
REMARK  233  A    between atoms: _569  and  _570
REMARK  234  A    between atoms: _574  and  _576
REMARK  235  A    between atoms: _576  and  _577
REMARK  236  A    between atoms: _576  and  _584
REMARK  237  A    between atoms: _577  and  _578
REMARK  238  A    between atoms: _578  and  _579
REMARK  239  A    between atoms: _579  and  _580
REMARK  240  A    between atoms: _580  and  _581
REMARK  241  A    between atoms: _586  and  _588
REMARK  242  A    between atoms: _588  and  _589
REMARK  243  A    between atoms: _588  and  _591
REMARK  244  A    between atoms: _591  and  _592
REMARK  245  A    between atoms: _595  and  _597
REMARK  246  A    between atoms: _597  and  _598
REMARK  247  A    between atoms: _600  and  _602
REMARK  248  A    between atoms: _602  and  _603
REMARK  249  A    between atoms: _606  and  _608
REMARK  250  A    between atoms: _608  and  _609
REMARK  251  A    between atoms: _608  and  _611
REMARK  252  A    between atoms: _611  and  _612
REMARK  253  A    between atoms: _617  and  _618
REMARK                            x       y       z     vdW  Elec       q    Type
REMARK                         _______ _______ _______ _____ _____    ______ ____
ROOT
ATOM      1  O   HOH     1      35.585  24.396  23.964  0.00  0.00    +0.000 OA
ENDROOT
TORSDOF 0
REMARK  Name = ../refined-set-2016/3g2h/3g2h_pocket.pdb
REMARK  253 active torsions:
REMARK  status: ('A' for Active; 'I' for Inactive)
REMARK    1  A    between atoms: _1  and  _3
REMARK    2  A    between atoms: _3  and  _4
REMARK    3  A    between atoms: _3  and  _6
REMARK    4  A    between atoms: _6  and  _7
REMARK    5  A    between atoms: _12  and  _13
REMARK    6  A    between atoms: _15  and  _17
REMARK    7  A    between atoms: _17  and  _18
REMARK    8  A    between atoms: _17  and  _20
REMARK    9  A    between atoms: _20  and  _21
REMARK   10  A    between atoms: _21  and  _22
REMARK   11  A    between atoms: _25  and  _27
REMARK   12  A    between atoms: _27  and  _28
REMARK   13  A    between atoms: _27  and  _30
REMARK   14  A    between atoms: _30  and  _31
REMARK   15  A    between atoms: _36  and  _38
REMARK   16  A    between atoms: _38  and  _39
REMARK   17  A    between atoms: _41  and  _43
REMARK   18  A    between atoms: _43  and  _44
REMARK   19  A    between atoms: _46  and  _48
REMARK   20  A    between atoms: _48  and  _49
REMARK   21  A    between atoms: _48  and  _51
REMARK   22  A    between atoms: _51  and  _52
REMARK   23  A    between atoms: _55  and  _57
REMARK   24  A    between atoms: _57  and  _58
REMARK   25  A    between atoms: _60  and  _62
REMARK   26  A    between atoms: _62  and  _63
REMARK   27  A    between atoms: _62  and  _65
REMARK   28  A    between atoms: _65  and  _66
REMARK   29  A    between atoms: _66  and  _67
REMARK   30  A    between atoms: _67  and  _68
REMARK   31  A    between atoms: _77  and  _79
REMARK   32  A    between atoms: _79  and  _80
REMARK   33  A    between atoms: _79  and  _82
REMARK   34  A    between atoms: _82  and  _83
REMARK   35  A    between atoms: _86  and  _88
REMARK   36  A    between atoms: _88  and  _89
REMARK   37  A    between atoms: _92  and  _94
REMARK   38  A    between atoms: _94  and  _95
REMARK   39  A    between atoms: _94  and  _97
REMARK   40  A    between atoms: _97  and  _98
REMARK   41  A    between atoms: _104  and  _106
REMARK   42  A    between atoms: _106  and  _107
REMARK   43  A    between atoms: _106  and  _109
REMARK   44  A    between atoms: _109  and  _110
REMARK   45  A    between atoms: _115  and  _117
REMARK   46  A    between atoms: _117  and  _118
REMARK   47  A    between atoms: _117  and  _120
REMARK   48  A    between atoms: _120  and  _121
REMARK   49  A    between atoms: _124  and  _126
REMARK   50  A    between atoms: _126  and  _127
REMARK   51  A    between atoms: _126  and  _129
REMARK   52  A    between atoms: _129  and  _130
REMARK   53  A    between atoms: _135  and  _137
REMARK   54  A    between atoms: _137  and  _138
REMARK   55  A    between atoms: _137  and  _140
REMARK   56  A    between atoms: _140  and  _141
REMARK   57  A    between atoms: _147  and  _149
REMARK   58  A    between atoms: _149  and  _150
REMARK   59  A    between atoms: _149  and  _152
REMARK   60  A    between atoms: _152  and  _153
REMARK   61  A    between atoms: _159  and  _161
REMARK   62  A    between atoms: _161  and  _162
REMARK   63  A    between atoms: _161  and  _164
REMARK   64  A    between atoms: _164  and  _165
REMARK   65  A    between atoms: _165  and  _166
REMARK   66  A    between atoms: _169  and  _171
REMARK   67  A    between atoms: _171  and  _172
REMARK   68  A    between atoms: _171  and  _174
REMARK   69  A    between atoms: _174  and  _175
REMARK   70  A    between atoms: _175  and  _176
REMARK   71  A    between atoms: _176  and  _177
REMARK   72  A    between atoms: _186  and  _188
REMARK   73  A    between atoms: _188  and  _189
REMARK   74  A    between atoms: _188  and  _191
REMARK   75  A    between atoms: _191  and  _192
REMARK   76  A    between atoms: _197  and  _199
REMARK   77  A    between atoms: _199  and  _200
REMARK   78  A    between atoms: _199  and  _202
REMARK   79  A    between atoms: _202  and  _203
REMARK   80  A    between atoms: _206  and  _208
REMARK   81  A    between atoms: _208  and  _209
REMARK   82  A    between atoms: _208  and  _211
REMARK   83  A    between atoms: _211  and  _212
REMARK   84  A    between atoms: _215  and  _217
REMARK   85  A    between atoms: _217  and  _218
REMARK   86  A    between atoms: _217  and  _220
REMARK   87  A    between atoms: _220  and  _221
REMARK   88  A    between atoms: _226  and  _228
REMARK   89  A    between atoms: _228  and  _229
REMARK   90  A    between atoms: _228  and  _231
REMARK   91  A    between atoms: _231  and  _232
REMARK   92  A    between atoms: _237  and  _238
REMARK   93  A    between atoms: _240  and  _242
REMARK   94  A    between atoms: _242  and  _243
REMARK   95  A    between atoms: _242  and  _245
REMARK   96  A    between atoms: _245  and  _246
REMARK   97  A    between atoms: _249  and  _251
REMARK   98  A    between atoms: _251  and  _252
REMARK   99  A    between atoms: _251  and  _254
REMARK  100  A    between atoms: _254  and  _255
REMARK  101  A    between atoms: _260  and  _262
REMARK  102  A    between atoms: _262  and  _263
REMARK  103  A    between atoms: _262  and  _265
REMARK  104  A    between atoms: _265  and  _266
REMARK  105  A    between atoms: _271  and  _273
REMARK  106  A    between atoms: _273  and  _274
REMARK  107  A    between atoms: _273  and  _276
REMARK  108  A    between atoms: _276  and  _277
REMARK  109  A    between atoms: _280  and  _282
REMARK  110  A    between atoms: _282  and  _283
REMARK  111  A    between atoms: _282  and  _285
REMARK  112  A    between atoms: _288  and  _290
REMARK  113  A    between atoms: _290  and  _291
REMARK  114  A    between atoms: _290  and  _293
REMARK  115  A    between atoms: _293  and  _294
REMARK  116  A    between atoms: _297  and  _299
REMARK  117  A    between atoms: _299  and  _300
REMARK  118  A    between atoms: _299  and  _302
REMARK  119  A    between atoms: _302  and  _303
REMARK  120  A    between atoms: _303  and  _304
REMARK  121  A    between atoms: _307  and  _309
REMARK  122  A    between atoms: _309  and  _310
REMARK  123  A    between atoms: _313  and  _315
REMARK  124  A    between atoms: _315  and  _316
REMARK  125  A    between atoms: _315  and  _318
REMARK  126  A    between atoms: _318  and  _319
REMARK  127  A    between atoms: _322  and  _324
REMARK  128  A    between atoms: _324  and  _325
REMARK  129  A    between atoms: _324  and  _327
REMARK  130  A    between atoms: _327  and  _328
REMARK  131  A    between atoms: _328  and  _329
REMARK  132  A    between atoms: _332  and  _334
REMARK  133  A    between atoms: _334  and  _335
REMARK  134  A    between atoms: _334  and  _337
REMARK  135  A    between atoms: _337  and  _338
REMARK  136  A    between atoms: _343  and  _345
REMARK  137  A    between atoms: _345  and  _346
REMARK  138  A    between atoms: _348  and  _350
REMARK  139  A    between atoms: _350  and  _351
REMARK  140  A    between atoms: _350  and  _353
REMARK  141  A    between atoms: _356  and  _358
REMARK  142  A    between atoms: _358  and  _359
REMARK  143  A    between atoms: _362  and  _364
REMARK  144  A    between atoms: _364  and  _365
REMARK  145  A    between atoms: _364  and  _367
REMARK  146  A    between atoms: _367  and  _368
REMARK  147  A    between atoms: _373  and  _375
REMARK  148  A    between atoms: _375  and  _376
REMARK  149  A    between atoms: _375  and  _378
REMARK  150  A    between atoms: _378  and  _379
REMARK  151  A    between atoms: _379  and  _380
REMARK  152  A    between atoms: _380  and  _381
REMARK  153  A    between atoms: _381  and  _382
REMARK  154  A    between atoms: _386  and  _388
REMARK  155  A    between atoms: _388  and  _389
REMARK  156  A    between atoms: _388  and  _391
REMARK  157  A    between atoms: _391  and  _392
REMARK  158  A    between atoms: _395  and  _397
REMARK  159  A    between atoms: _397  and  _398
REMARK  160  A    between atoms: _397  and  _400
REMARK  161  A    between atoms: _400  and  _401
REMARK  162  A    between atoms: _406  and  _408
REMARK  163  A    between atoms: _408  and  _409
REMARK  164  A    between atoms: _411  and  _413
REMARK  165  A    between atoms: _413  and  _414
REMARK  166  A    between atoms: _413  and  _416
REMARK  167  A    between atoms: _416  and  _417
REMARK  168  A    between atoms: _417  and  _418
REMARK  169  A    between atoms: _418  and  _419
REMARK  170  A    between atoms: _419  and  _420
REMARK  171  A    between atoms: _424  and  _426
REMARK  172  A    between atoms: _426  and  _427
REMARK  173  A    between atoms: _426  and  _429
REMARK  174  A    between atoms: _429  and  _430
REMARK  175  A    between atoms: _430  and  _431
REMARK  176  A    between atoms: _431  and  _432
REMARK  177  A    between atoms: _441  and  _443
REMARK  178  A    between atoms: _443  and  _444
REMARK  179  A    between atoms: _443  and  _446
REMARK  180  A    between atoms: _446  and  _447
REMARK  181  A    between atoms: _452  and  _454
REMARK  182  A    between atoms: _454  and  _455
REMARK  183  A    between atoms: _454  and  _457
REMARK  184  A    between atoms: _457  and  _458
REMARK  185  A    between atoms: _463  and  _464
REMARK  186  A    between atoms: _466  and  _468
REMARK  187  A    between atoms: _468  and  _469
REMARK  188  A    between atoms: _468  and  _471
REMARK  189  A    between atoms: _471  and  _472
REMARK  190  A    between atoms: _472  and  _473
REMARK  191  A    between atoms: _473  and  _474
REMARK  192  A    between atoms: _474  and  _475
REMARK  193  A    between atoms: _479  and  _481
REMARK  194  A    between atoms: _481  and  _482
REMARK  195  A    between atoms: _481  and  _484
REMARK  196  A    between atoms: _484  and  _485
REMARK  197  A    between atoms: _487  and  _489
REMARK  198  A    between atoms: _489  and  _490
REMARK  199  A    between atoms: _489  and  _492
REMARK  200  A    between atoms: _492  and  _493
REMARK  201  A    between atoms: _496  and  _498
REMARK  202  A    between atoms: _498  and  _499
REMARK  203  A    between atoms: _498  and  _501
REMARK  204  A    between atoms: _501  and  _502
REMARK  205  A    between atoms: _502  and  _503
REMARK  206  A    between atoms: _506  and  _508
REMARK  207  A    between atoms: _508  and  _509
REMARK  208  A    between atoms: _512  and  _514
REMARK  209  A    between atoms: _514  and  _515
REMARK  210  A    between atoms: _514  and  _517
REMARK  211  A    between atoms: _517  and  _518
REMARK  212  A    between atoms: _520  and  _522
REMARK  213  A    between atoms: _522  and  _523
REMARK  214  A    between atoms: _525  and  _527
REMARK  215  A    between atoms: _527  and  _528
REMARK  216  A    between atoms: _527  and  _530
REMARK  217  A    between atoms: _530  and  _531
REMARK  218  A    between atoms: _534  and  _536
REMARK  219  A    between atoms: _536  and  _537
REMARK  220  A    between atoms: _539  and  _541
REMARK  221  A    between atoms: _541  and  _542
REMARK  222  A    between atoms: _541  and  _544
REMARK  223  A    between atoms: _544  and  _545
REMARK  224  A    between atoms: _550  and  _552
REMARK  225  A    between atoms: _552  and  _553
REMARK  226  A    between atoms: _552  and  _555
REMARK  227  A    between atoms: _555  and  _556
REMARK  228  A    between atoms: _556  and  _557
REMARK  229  A    between atoms: _564  and  _565
REMARK  230  A    between atoms: _565  and  _581
REMARK  231  A    between atoms: _566  and  _568
REMARK  232  A    between atoms: _568  and  _569
REMARK  233  A    between atoms: _569  and  _570
REMARK  234  A    between atoms: _574  and  _576
REMARK  235  A    between atoms: _576  and  _577
REMARK  236  A    between atoms: _576  and  _584
REMARK  237  A    between atoms: _577  and  _578
REMARK  238  A    between atoms: _578  and  _579
REMARK  239  A    between atoms: _579  and  _580
REMARK  240  A    between atoms: _580  and  _581
REMARK  241  A    between atoms: _586  and  _588
REMARK  242  A    between atoms: _588  and  _589
REMARK  243  A    between atoms: _588  and  _591
REMARK  244  A    between atoms: _591  and  _592
REMARK  245  A    between atoms: _595  and  _597
REMARK  246  A    between atoms: _597  and  _598
REMARK  247  A    between atoms: _600  and  _602
REMARK  248  A    between atoms: _602  and  _603
REMARK  249  A    between atoms: _606  and  _608
REMARK  250  A    between atoms: _608  and  _609
REMARK  251  A    between atoms: _608  and  _611
REMARK  252  A    between atoms: _611  and  _612
REMARK  253  A    between atoms: _617  and  _618
REMARK                            x       y       z     vdW  Elec       q    Type
REMARK                         _______ _______ _______ _____ _____    ______ ____
ROOT
ATOM      1  O   HOH     1      38.469  22.707  19.642  0.00  0.00    +0.000 OA
ENDROOT
TORSDOF 0
REMARK  Name = ../refined-set-2016/3g2h/3g2h_pocket.pdb
REMARK  253 active torsions:
REMARK  status: ('A' for Active; 'I' for Inactive)
REMARK    1  A    between atoms: _1  and  _3
REMARK    2  A    between atoms: _3  and  _4
REMARK    3  A    between atoms: _3  and  _6
REMARK    4  A    between atoms: _6  and  _7
REMARK    5  A    between atoms: _12  and  _13
REMARK    6  A    between atoms: _15  and  _17
REMARK    7  A    between atoms: _17  and  _18
REMARK    8  A    between atoms: _17  and  _20
REMARK    9  A    between atoms: _20  and  _21
REMARK   10  A    between atoms: _21  and  _22
REMARK   11  A    between atoms: _25  and  _27
REMARK   12  A    between atoms: _27  and  _28
REMARK   13  A    between atoms: _27  and  _30
REMARK   14  A    between atoms: _30  and  _31
REMARK   15  A    between atoms: _36  and  _38
REMARK   16  A    between atoms: _38  and  _39
REMARK   17  A    between atoms: _41  and  _43
REMARK   18  A    between atoms: _43  and  _44
REMARK   19  A    between atoms: _46  and  _48
REMARK   20  A    between atoms: _48  and  _49
REMARK   21  A    between atoms: _48  and  _51
REMARK   22  A    between atoms: _51  and  _52
REMARK   23  A    between atoms: _55  and  _57
REMARK   24  A    between atoms: _57  and  _58
REMARK   25  A    between atoms: _60  and  _62
REMARK   26  A    between atoms: _62  and  _63
REMARK   27  A    between atoms: _62  and  _65
REMARK   28  A    between atoms: _65  and  _66
REMARK   29  A    between atoms: _66  and  _67
REMARK   30  A    between atoms: _67  and  _68
REMARK   31  A    between atoms: _77  and  _79
REMARK   32  A    between atoms: _79  and  _80
REMARK   33  A    between atoms: _79  and  _82
REMARK   34  A    between atoms: _82  and  _83
REMARK   35  A    between atoms: _86  and  _88
REMARK   36  A    between atoms: _88  and  _89
REMARK   37  A    between atoms: _92  and  _94
REMARK   38  A    between atoms: _94  and  _95
REMARK   39  A    between atoms: _94  and  _97
REMARK   40  A    between atoms: _97  and  _98
REMARK   41  A    between atoms: _104  and  _106
REMARK   42  A    between atoms: _106  and  _107
REMARK   43  A    between atoms: _106  and  _109
REMARK   44  A    between atoms: _109  and  _110
REMARK   45  A    between atoms: _115  and  _117
REMARK   46  A    between atoms: _117  and  _118
REMARK   47  A    between atoms: _117  and  _120
REMARK   48  A    between atoms: _120  and  _121
REMARK   49  A    between atoms: _124  and  _126
REMARK   50  A    between atoms: _126  and  _127
REMARK   51  A    between atoms: _126  and  _129
REMARK   52  A    between atoms: _129  and  _130
REMARK   53  A    between atoms: _135  and  _137
REMARK   54  A    between atoms: _137  and  _138
REMARK   55  A    between atoms: _137  and  _140
REMARK   56  A    between atoms: _140  and  _141
REMARK   57  A    between atoms: _147  and  _149
REMARK   58  A    between atoms: _149  and  _150
REMARK   59  A    between atoms: _149  and  _152
REMARK   60  A    between atoms: _152  and  _153
REMARK   61  A    between atoms: _159  and  _161
REMARK   62  A    between atoms: _161  and  _162
REMARK   63  A    between atoms: _161  and  _164
REMARK   64  A    between atoms: _164  and  _165
REMARK   65  A    between atoms: _165  and  _166
REMARK   66  A    between atoms: _169  and  _171
REMARK   67  A    between atoms: _171  and  _172
REMARK   68  A    between atoms: _171  and  _174
REMARK   69  A    between atoms: _174  and  _175
REMARK   70  A    between atoms: _175  and  _176
REMARK   71  A    between atoms: _176  and  _177
REMARK   72  A    between atoms: _186  and  _188
REMARK   73  A    between atoms: _188  and  _189
REMARK   74  A    between atoms: _188  and  _191
REMARK   75  A    between atoms: _191  and  _192
REMARK   76  A    between atoms: _197  and  _199
REMARK   77  A    between atoms: _199  and  _200
REMARK   78  A    between atoms: _199  and  _202
REMARK   79  A    between atoms: _202  and  _203
REMARK   80  A    between atoms: _206  and  _208
REMARK   81  A    between atoms: _208  and  _209
REMARK   82  A    between atoms: _208  and  _211
REMARK   83  A    between atoms: _211  and  _212
REMARK   84  A    between atoms: _215  and  _217
REMARK   85  A    between atoms: _217  and  _218
REMARK   86  A    between atoms: _217  and  _220
REMARK   87  A    between atoms: _220  and  _221
REMARK   88  A    between atoms: _226  and  _228
REMARK   89  A    between atoms: _228  and  _229
REMARK   90  A    between atoms: _228  and  _231
REMARK   91  A    between atoms: _231  and  _232
REMARK   92  A    between atoms: _237  and  _238
REMARK   93  A    between atoms: _240  and  _242
REMARK   94  A    between atoms: _242  and  _243
REMARK   95  A    between atoms: _242  and  _245
REMARK   96  A    between atoms: _245  and  _246
REMARK   97  A    between atoms: _249  and  _251
REMARK   98  A    between atoms: _251  and  _252
REMARK   99  A    between atoms: _251  and  _254
REMARK  100  A    between atoms: _254  and  _255
REMARK  101  A    between atoms: _260  and  _262
REMARK  102  A    between atoms: _262  and  _263
REMARK  103  A    between atoms: _262  and  _265
REMARK  104  A    between atoms: _265  and  _266
REMARK  105  A    between atoms: _271  and  _273
REMARK  106  A    between atoms: _273  and  _274
REMARK  107  A    between atoms: _273  and  _276
REMARK  108  A    between atoms: _276  and  _277
REMARK  109  A    between atoms: _280  and  _282
REMARK  110  A    between atoms: _282  and  _283
REMARK  111  A    between atoms: _282  and  _285
REMARK  112  A    between atoms: _288  and  _290
REMARK  113  A    between atoms: _290  and  _291
REMARK  114  A    between atoms: _290  and  _293
REMARK  115  A    between atoms: _293  and  _294
REMARK  116  A    between atoms: _297  and  _299
REMARK  117  A    between atoms: _299  and  _300
REMARK  118  A    between atoms: _299  and  _302
REMARK  119  A    between atoms: _302  and  _303
REMARK  120  A    between atoms: _303  and  _304
REMARK  121  A    between atoms: _307  and  _309
REMARK  122  A    between atoms: _309  and  _310
REMARK  123  A    between atoms: _313  and  _315
REMARK  124  A    between atoms: _315  and  _316
REMARK  125  A    between atoms: _315  and  _318
REMARK  126  A    between atoms: _318  and  _319
REMARK  127  A    between atoms: _322  and  _324
REMARK  128  A    between atoms: _324  and  _325
REMARK  129  A    between atoms: _324  and  _327
REMARK  130  A    between atoms: _327  and  _328
REMARK  131  A    between atoms: _328  and  _329
REMARK  132  A    between atoms: _332  and  _334
REMARK  133  A    between atoms: _334  and  _335
REMARK  134  A    between atoms: _334  and  _337
REMARK  135  A    between atoms: _337  and  _338
REMARK  136  A    between atoms: _343  and  _345
REMARK  137  A    between atoms: _345  and  _346
REMARK  138  A    between atoms: _348  and  _350
REMARK  139  A    between atoms: _350  and  _351
REMARK  140  A    between atoms: _350  and  _353
REMARK  141  A    between atoms: _356  and  _358
REMARK  142  A    between atoms: _358  and  _359
REMARK  143  A    between atoms: _362  and  _364
REMARK  144  A    between atoms: _364  and  _365
REMARK  145  A    between atoms: _364  and  _367
REMARK  146  A    between atoms: _367  and  _368
REMARK  147  A    between atoms: _373  and  _375
REMARK  148  A    between atoms: _375  and  _376
REMARK  149  A    between atoms: _375  and  _378
REMARK  150  A    between atoms: _378  and  _379
REMARK  151  A    between atoms: _379  and  _380
REMARK  152  A    between atoms: _380  and  _381
REMARK  153  A    between atoms: _381  and  _382
REMARK  154  A    between atoms: _386  and  _388
REMARK  155  A    between atoms: _388  and  _389
REMARK  156  A    between atoms: _388  and  _391
REMARK  157  A    between atoms: _391  and  _392
REMARK  158  A    between atoms: _395  and  _397
REMARK  159  A    between atoms: _397  and  _398
REMARK  160  A    between atoms: _397  and  _400
REMARK  161  A    between atoms: _400  and  _401
REMARK  162  A    between atoms: _406  and  _408
REMARK  163  A    between atoms: _408  and  _409
REMARK  164  A    between atoms: _411  and  _413
REMARK  165  A    between atoms: _413  and  _414
REMARK  166  A    between atoms: _413  and  _416
REMARK  167  A    between atoms: _416  and  _417
REMARK  168  A    between atoms: _417  and  _418
REMARK  169  A    between atoms: _418  and  _419
REMARK  170  A    between atoms: _419  and  _420
REMARK  171  A    between atoms: _424  and  _426
REMARK  172  A    between atoms: _426  and  _427
REMARK  173  A    between atoms: _426  and  _429
REMARK  174  A    between atoms: _429  and  _430
REMARK  175  A    between atoms: _430  and  _431
REMARK  176  A    between atoms: _431  and  _432
REMARK  177  A    between atoms: _441  and  _443
REMARK  178  A    between atoms: _443  and  _444
REMARK  179  A    between atoms: _443  and  _446
REMARK  180  A    between atoms: _446  and  _447
REMARK  181  A    between atoms: _452  and  _454
REMARK  182  A    between atoms: _454  and  _455
REMARK  183  A    between atoms: _454  and  _457
REMARK  184  A    between atoms: _457  and  _458
REMARK  185  A    between atoms: _463  and  _464
REMARK  186  A    between atoms: _466  and  _468
REMARK  187  A    between atoms: _468  and  _469
REMARK  188  A    between atoms: _468  and  _471
REMARK  189  A    between atoms: _471  and  _472
REMARK  190  A    between atoms: _472  and  _473
REMARK  191  A    between atoms: _473  and  _474
REMARK  192  A    between atoms: _474  and  _475
REMARK  193  A    between atoms: _479  and  _481
REMARK  194  A    between atoms: _481  and  _482
REMARK  195  A    between atoms: _481  and  _484
REMARK  196  A    between atoms: _484  and  _485
REMARK  197  A    between atoms: _487  and  _489
REMARK  198  A    between atoms: _489  and  _490
REMARK  199  A    between atoms: _489  and  _492
REMARK  200  A    between atoms: _492  and  _493
REMARK  201  A    between atoms: _496  and  _498
REMARK  202  A    between atoms: _498  and  _499
REMARK  203  A    between atoms: _498  and  _501
REMARK  204  A    between atoms: _501  and  _502
REMARK  205  A    between atoms: _502  and  _503
REMARK  206  A    between atoms: _506  and  _508
REMARK  207  A    between atoms: _508  and  _509
REMARK  208  A    between atoms: _512  and  _514
REMARK  209  A    between atoms: _514  and  _515
REMARK  210  A    between atoms: _514  and  _517
REMARK  211  A    between atoms: _517  and  _518
REMARK  212  A    between atoms: _520  and  _522
REMARK  213  A    between atoms: _522  and  _523
REMARK  214  A    between atoms: _525  and  _527
REMARK  215  A    between atoms: _527  and  _528
REMARK  216  A    between atoms: _527  and  _530
REMARK  217  A    between atoms: _530  and  _531
REMARK  218  A    between atoms: _534  and  _536
REMARK  219  A    between atoms: _536  and  _537
REMARK  220  A    between atoms: _539  and  _541
REMARK  221  A    between atoms: _541  and  _542
REMARK  222  A    between atoms: _541  and  _544
REMARK  223  A    between atoms: _544  and  _545
REMARK  224  A    between atoms: _550  and  _552
REMARK  225  A    between atoms: _552  and  _553
REMARK  226  A    between atoms: _552  and  _555
REMARK  227  A    between atoms: _555  and  _556
REMARK  228  A    between atoms: _556  and  _557
REMARK  229  A    between atoms: _564  and  _565
REMARK  230  A    between atoms: _565  and  _581
REMARK  231  A    between atoms: _566  and  _568
REMARK  232  A    between atoms: _568  and  _569
REMARK  233  A    between atoms: _569  and  _570
REMARK  234  A    between atoms: _574  and  _576
REMARK  235  A    between atoms: _576  and  _577
REMARK  236  A    between atoms: _576  and  _584
REMARK  237  A    between atoms: _577  and  _578
REMARK  238  A    between atoms: _578  and  _579
REMARK  239  A    between atoms: _579  and  _580
REMARK  240  A    between atoms: _580  and  _581
REMARK  241  A    between atoms: _586  and  _588
REMARK  242  A    between atoms: _588  and  _589
REMARK  243  A    between atoms: _588  and  _591
REMARK  244  A    between atoms: _591  and  _592
REMARK  245  A    between atoms: _595  and  _597
REMARK  246  A    between atoms: _597  and  _598
REMARK  247  A    between atoms: _600  and  _602
REMARK  248  A    between atoms: _602  and  _603
REMARK  249  A    between atoms: _606  and  _608
REMARK  250  A    between atoms: _608  and  _609
REMARK  251  A    between atoms: _608  and  _611
REMARK  252  A    between atoms: _611  and  _612
REMARK  253  A    between atoms: _617  and  _618
REMARK                            x       y       z     vdW  Elec       q    Type
REMARK                         _______ _______ _______ _____ _____    ______ ____
ROOT
ATOM      1  O   HOH     1      36.343  26.695  35.993  0.00  0.00    +0.000 OA
ENDROOT
TORSDOF 0
REMARK  Name = ../refined-set-2016/3g2h/3g2h_pocket.pdb
REMARK  253 active torsions:
REMARK  status: ('A' for Active; 'I' for Inactive)
REMARK    1  A    between atoms: _1  and  _3
REMARK    2  A    between atoms: _3  and  _4
REMARK    3  A    between atoms: _3  and  _6
REMARK    4  A    between atoms: _6  and  _7
REMARK    5  A    between atoms: _12  and  _13
REMARK    6  A    between atoms: _15  and  _17
REMARK    7  A    between atoms: _17  and  _18
REMARK    8  A    between atoms: _17  and  _20
REMARK    9  A    between atoms: _20  and  _21
REMARK   10  A    between atoms: _21  and  _22
REMARK   11  A    between atoms: _25  and  _27
REMARK   12  A    between atoms: _27  and  _28
REMARK   13  A    between atoms: _27  and  _30
REMARK   14  A    between atoms: _30  and  _31
REMARK   15  A    between atoms: _36  and  _38
REMARK   16  A    between atoms: _38  and  _39
REMARK   17  A    between atoms: _41  and  _43
REMARK   18  A    between atoms: _43  and  _44
REMARK   19  A    between atoms: _46  and  _48
REMARK   20  A    between atoms: _48  and  _49
REMARK   21  A    between atoms: _48  and  _51
REMARK   22  A    between atoms: _51  and  _52
REMARK   23  A    between atoms: _55  and  _57
REMARK   24  A    between atoms: _57  and  _58
REMARK   25  A    between atoms: _60  and  _62
REMARK   26  A    between atoms: _62  and  _63
REMARK   27  A    between atoms: _62  and  _65
REMARK   28  A    between atoms: _65  and  _66
REMARK   29  A    between atoms: _66  and  _67
REMARK   30  A    between atoms: _67  and  _68
REMARK   31  A    between atoms: _77  and  _79
REMARK   32  A    between atoms: _79  and  _80
REMARK   33  A    between atoms: _79  and  _82
REMARK   34  A    between atoms: _82  and  _83
REMARK   35  A    between atoms: _86  and  _88
REMARK   36  A    between atoms: _88  and  _89
REMARK   37  A    between atoms: _92  and  _94
REMARK   38  A    between atoms: _94  and  _95
REMARK   39  A    between atoms: _94  and  _97
REMARK   40  A    between atoms: _97  and  _98
REMARK   41  A    between atoms: _104  and  _106
REMARK   42  A    between atoms: _106  and  _107
REMARK   43  A    between atoms: _106  and  _109
REMARK   44  A    between atoms: _109  and  _110
REMARK   45  A    between atoms: _115  and  _117
REMARK   46  A    between atoms: _117  and  _118
REMARK   47  A    between atoms: _117  and  _120
REMARK   48  A    between atoms: _120  and  _121
REMARK   49  A    between atoms: _124  and  _126
REMARK   50  A    between atoms: _126  and  _127
REMARK   51  A    between atoms: _126  and  _129
REMARK   52  A    between atoms: _129  and  _130
REMARK   53  A    between atoms: _135  and  _137
REMARK   54  A    between atoms: _137  and  _138
REMARK   55  A    between atoms: _137  and  _140
REMARK   56  A    between atoms: _140  and  _141
REMARK   57  A    between atoms: _147  and  _149
REMARK   58  A    between atoms: _149  and  _150
REMARK   59  A    between atoms: _149  and  _152
REMARK   60  A    between atoms: _152  and  _153
REMARK   61  A    between atoms: _159  and  _161
REMARK   62  A    between atoms: _161  and  _162
REMARK   63  A    between atoms: _161  and  _164
REMARK   64  A    between atoms: _164  and  _165
REMARK   65  A    between atoms: _165  and  _166
REMARK   66  A    between atoms: _169  and  _171
REMARK   67  A    between atoms: _171  and  _172
REMARK   68  A    between atoms: _171  and  _174
REMARK   69  A    between atoms: _174  and  _175
REMARK   70  A    between atoms: _175  and  _176
REMARK   71  A    between atoms: _176  and  _177
REMARK   72  A    between atoms: _186  and  _188
REMARK   73  A    between atoms: _188  and  _189
REMARK   74  A    between atoms: _188  and  _191
REMARK   75  A    between atoms: _191  and  _192
REMARK   76  A    between atoms: _197  and  _199
REMARK   77  A    between atoms: _199  and  _200
REMARK   78  A    between atoms: _199  and  _202
REMARK   79  A    between atoms: _202  and  _203
REMARK   80  A    between atoms: _206  and  _208
REMARK   81  A    between atoms: _208  and  _209
REMARK   82  A    between atoms: _208  and  _211
REMARK   83  A    between atoms: _211  and  _212
REMARK   84  A    between atoms: _215  and  _217
REMARK   85  A    between atoms: _217  and  _218
REMARK   86  A    between atoms: _217  and  _220
REMARK   87  A    between atoms: _220  and  _221
REMARK   88  A    between atoms: _226  and  _228
REMARK   89  A    between atoms: _228  and  _229
REMARK   90  A    between atoms: _228  and  _231
REMARK   91  A    between atoms: _231  and  _232
REMARK   92  A    between atoms: _237  and  _238
REMARK   93  A    between atoms: _240  and  _242
REMARK   94  A    between atoms: _242  and  _243
REMARK   95  A    between atoms: _242  and  _245
REMARK   96  A    between atoms: _245  and  _246
REMARK   97  A    between atoms: _249  and  _251
REMARK   98  A    between atoms: _251  and  _252
REMARK   99  A    between atoms: _251  and  _254
REMARK  100  A    between atoms: _254  and  _255
REMARK  101  A    between atoms: _260  and  _262
REMARK  102  A    between atoms: _262  and  _263
REMARK  103  A    between atoms: _262  and  _265
REMARK  104  A    between atoms: _265  and  _266
REMARK  105  A    between atoms: _271  and  _273
REMARK  106  A    between atoms: _273  and  _274
REMARK  107  A    between atoms: _273  and  _276
REMARK  108  A    between atoms: _276  and  _277
REMARK  109  A    between atoms: _280  and  _282
REMARK  110  A    between atoms: _282  and  _283
REMARK  111  A    between atoms: _282  and  _285
REMARK  112  A    between atoms: _288  and  _290
REMARK  113  A    between atoms: _290  and  _291
REMARK  114  A    between atoms: _290  and  _293
REMARK  115  A    between atoms: _293  and  _294
REMARK  116  A    between atoms: _297  and  _299
REMARK  117  A    between atoms: _299  and  _300
REMARK  118  A    between atoms: _299  and  _302
REMARK  119  A    between atoms: _302  and  _303
REMARK  120  A    between atoms: _303  and  _304
REMARK  121  A    between atoms: _307  and  _309
REMARK  122  A    between atoms: _309  and  _310
REMARK  123  A    between atoms: _313  and  _315
REMARK  124  A    between atoms: _315  and  _316
REMARK  125  A    between atoms: _315  and  _318
REMARK  126  A    between atoms: _318  and  _319
REMARK  127  A    between atoms: _322  and  _324
REMARK  128  A    between atoms: _324  and  _325
REMARK  129  A    between atoms: _324  and  _327
REMARK  130  A    between atoms: _327  and  _328
REMARK  131  A    between atoms: _328  and  _329
REMARK  132  A    between atoms: _332  and  _334
REMARK  133  A    between atoms: _334  and  _335
REMARK  134  A    between atoms: _334  and  _337
REMARK  135  A    between atoms: _337  and  _338
REMARK  136  A    between atoms: _343  and  _345
REMARK  137  A    between atoms: _345  and  _346
REMARK  138  A    between atoms: _348  and  _350
REMARK  139  A    between atoms: _350  and  _351
REMARK  140  A    between atoms: _350  and  _353
REMARK  141  A    between atoms: _356  and  _358
REMARK  142  A    between atoms: _358  and  _359
REMARK  143  A    between atoms: _362  and  _364
REMARK  144  A    between atoms: _364  and  _365
REMARK  145  A    between atoms: _364  and  _367
REMARK  146  A    between atoms: _367  and  _368
REMARK  147  A    between atoms: _373  and  _375
REMARK  148  A    between atoms: _375  and  _376
REMARK  149  A    between atoms: _375  and  _378
REMARK  150  A    between atoms: _378  and  _379
REMARK  151  A    between atoms: _379  and  _380
REMARK  152  A    between atoms: _380  and  _381
REMARK  153  A    between atoms: _381  and  _382
REMARK  154  A    between atoms: _386  and  _388
REMARK  155  A    between atoms: _388  and  _389
REMARK  156  A    between atoms: _388  and  _391
REMARK  157  A    between atoms: _391  and  _392
REMARK  158  A    between atoms: _395  and  _397
REMARK  159  A    between atoms: _397  and  _398
REMARK  160  A    between atoms: _397  and  _400
REMARK  161  A    between atoms: _400  and  _401
REMARK  162  A    between atoms: _406  and  _408
REMARK  163  A    between atoms: _408  and  _409
REMARK  164  A    between atoms: _411  and  _413
REMARK  165  A    between atoms: _413  and  _414
REMARK  166  A    between atoms: _413  and  _416
REMARK  167  A    between atoms: _416  and  _417
REMARK  168  A    between atoms: _417  and  _418
REMARK  169  A    between atoms: _418  and  _419
REMARK  170  A    between atoms: _419  and  _420
REMARK  171  A    between atoms: _424  and  _426
REMARK  172  A    between atoms: _426  and  _427
REMARK  173  A    between atoms: _426  and  _429
REMARK  174  A    between atoms: _429  and  _430
REMARK  175  A    between atoms: _430  and  _431
REMARK  176  A    between atoms: _431  and  _432
REMARK  177  A    between atoms: _441  and  _443
REMARK  178  A    between atoms: _443  and  _444
REMARK  179  A    between atoms: _443  and  _446
REMARK  180  A    between atoms: _446  and  _447
REMARK  181  A    between atoms: _452  and  _454
REMARK  182  A    between atoms: _454  and  _455
REMARK  183  A    between atoms: _454  and  _457
REMARK  184  A    between atoms: _457  and  _458
REMARK  185  A    between atoms: _463  and  _464
REMARK  186  A    between atoms: _466  and  _468
REMARK  187  A    between atoms: _468  and  _469
REMARK  188  A    between atoms: _468  and  _471
REMARK  189  A    between atoms: _471  and  _472
REMARK  190  A    between atoms: _472  and  _473
REMARK  191  A    between atoms: _473  and  _474
REMARK  192  A    between atoms: _474  and  _475
REMARK  193  A    between atoms: _479  and  _481
REMARK  194  A    between atoms: _481  and  _482
REMARK  195  A    between atoms: _481  and  _484
REMARK  196  A    between atoms: _484  and  _485
REMARK  197  A    between atoms: _487  and  _489
REMARK  198  A    between atoms: _489  and  _490
REMARK  199  A    between atoms: _489  and  _492
REMARK  200  A    between atoms: _492  and  _493
REMARK  201  A    between atoms: _496  and  _498
REMARK  202  A    between atoms: _498  and  _499
REMARK  203  A    between atoms: _498  and  _501
REMARK  204  A    between atoms: _501  and  _502
REMARK  205  A    between atoms: _502  and  _503
REMARK  206  A    between atoms: _506  and  _508
REMARK  207  A    between atoms: _508  and  _509
REMARK  208  A    between atoms: _512  and  _514
REMARK  209  A    between atoms: _514  and  _515
REMARK  210  A    between atoms: _514  and  _517
REMARK  211  A    between atoms: _517  and  _518
REMARK  212  A    between atoms: _520  and  _522
REMARK  213  A    between atoms: _522  and  _523
REMARK  214  A    between atoms: _525  and  _527
REMARK  215  A    between atoms: _527  and  _528
REMARK  216  A    between atoms: _527  and  _530
REMARK  217  A    between atoms: _530  and  _531
REMARK  218  A    between atoms: _534  and  _536
REMARK  219  A    between atoms: _536  and  _537
REMARK  220  A    between atoms: _539  and  _541
REMARK  221  A    between atoms: _541  and  _542
REMARK  222  A    between atoms: _541  and  _544
REMARK  223  A    between atoms: _544  and  _545
REMARK  224  A    between atoms: _550  and  _552
REMARK  225  A    between atoms: _552  and  _553
REMARK  226  A    between atoms: _552  and  _555
REMARK  227  A    between atoms: _555  and  _556
REMARK  228  A    between atoms: _556  and  _557
REMARK  229  A    between atoms: _564  and  _565
REMARK  230  A    between atoms: _565  and  _581
REMARK  231  A    between atoms: _566  and  _568
REMARK  232  A    between atoms: _568  and  _569
REMARK  233  A    between atoms: _569  and  _570
REMARK  234  A    between atoms: _574  and  _576
REMARK  235  A    between atoms: _576  and  _577
REMARK  236  A    between atoms: _576  and  _584
REMARK  237  A    between atoms: _577  and  _578
REMARK  238  A    between atoms: _578  and  _579
REMARK  239  A    between atoms: _579  and  _580
REMARK  240  A    between atoms: _580  and  _581
REMARK  241  A    between atoms: _586  and  _588
REMARK  242  A    between atoms: _588  and  _589
REMARK  243  A    between atoms: _588  and  _591
REMARK  244  A    between atoms: _591  and  _592
REMARK  245  A    between atoms: _595  and  _597
REMARK  246  A    between atoms: _597  and  _598
REMARK  247  A    between atoms: _600  and  _602
REMARK  248  A    between atoms: _602  and  _603
REMARK  249  A    between atoms: _606  and  _608
REMARK  250  A    between atoms: _608  and  _609
REMARK  251  A    between atoms: _608  and  _611
REMARK  252  A    between atoms: _611  and  _612
REMARK  253  A    between atoms: _617  and  _618
REMARK                            x       y       z     vdW  Elec       q    Type
REMARK                         _______ _______ _______ _____ _____    ______ ____
ROOT
ATOM      1  O   HOH     1      34.165  25.683  34.698  0.00  0.00    +0.000 OA
ENDROOT
TORSDOF 0
REMARK  Name = ../refined-set-2016/3g2h/3g2h_pocket.pdb
REMARK  253 active torsions:
REMARK  status: ('A' for Active; 'I' for Inactive)
REMARK    1  A    between atoms: _1  and  _3
REMARK    2  A    between atoms: _3  and  _4
REMARK    3  A    between atoms: _3  and  _6
REMARK    4  A    between atoms: _6  and  _7
REMARK    5  A    between atoms: _12  and  _13
REMARK    6  A    between atoms: _15  and  _17
REMARK    7  A    between atoms: _17  and  _18
REMARK    8  A    between atoms: _17  and  _20
REMARK    9  A    between atoms: _20  and  _21
REMARK   10  A    between atoms: _21  and  _22
REMARK   11  A    between atoms: _25  and  _27
REMARK   12  A    between atoms: _27  and  _28
REMARK   13  A    between atoms: _27  and  _30
REMARK   14  A    between atoms: _30  and  _31
REMARK   15  A    between atoms: _36  and  _38
REMARK   16  A    between atoms: _38  and  _39
REMARK   17  A    between atoms: _41  and  _43
REMARK   18  A    between atoms: _43  and  _44
REMARK   19  A    between atoms: _46  and  _48
REMARK   20  A    between atoms: _48  and  _49
REMARK   21  A    between atoms: _48  and  _51
REMARK   22  A    between atoms: _51  and  _52
REMARK   23  A    between atoms: _55  and  _57
REMARK   24  A    between atoms: _57  and  _58
REMARK   25  A    between atoms: _60  and  _62
REMARK   26  A    between atoms: _62  and  _63
REMARK   27  A    between atoms: _62  and  _65
REMARK   28  A    between atoms: _65  and  _66
REMARK   29  A    between atoms: _66  and  _67
REMARK   30  A    between atoms: _67  and  _68
REMARK   31  A    between atoms: _77  and  _79
REMARK   32  A    between atoms: _79  and  _80
REMARK   33  A    between atoms: _79  and  _82
REMARK   34  A    between atoms: _82  and  _83
REMARK   35  A    between atoms: _86  and  _88
REMARK   36  A    between atoms: _88  and  _89
REMARK   37  A    between atoms: _92  and  _94
REMARK   38  A    between atoms: _94  and  _95
REMARK   39  A    between atoms: _94  and  _97
REMARK   40  A    between atoms: _97  and  _98
REMARK   41  A    between atoms: _104  and  _106
REMARK   42  A    between atoms: _106  and  _107
REMARK   43  A    between atoms: _106  and  _109
REMARK   44  A    between atoms: _109  and  _110
REMARK   45  A    between atoms: _115  and  _117
REMARK   46  A    between atoms: _117  and  _118
REMARK   47  A    between atoms: _117  and  _120
REMARK   48  A    between atoms: _120  and  _121
REMARK   49  A    between atoms: _124  and  _126
REMARK   50  A    between atoms: _126  and  _127
REMARK   51  A    between atoms: _126  and  _129
REMARK   52  A    between atoms: _129  and  _130
REMARK   53  A    between atoms: _135  and  _137
REMARK   54  A    between atoms: _137  and  _138
REMARK   55  A    between atoms: _137  and  _140
REMARK   56  A    between atoms: _140  and  _141
REMARK   57  A    between atoms: _147  and  _149
REMARK   58  A    between atoms: _149  and  _150
REMARK   59  A    between atoms: _149  and  _152
REMARK   60  A    between atoms: _152  and  _153
REMARK   61  A    between atoms: _159  and  _161
REMARK   62  A    between atoms: _161  and  _162
REMARK   63  A    between atoms: _161  and  _164
REMARK   64  A    between atoms: _164  and  _165
REMARK   65  A    between atoms: _165  and  _166
REMARK   66  A    between atoms: _169  and  _171
REMARK   67  A    between atoms: _171  and  _172
REMARK   68  A    between atoms: _171  and  _174
REMARK   69  A    between atoms: _174  and  _175
REMARK   70  A    between atoms: _175  and  _176
REMARK   71  A    between atoms: _176  and  _177
REMARK   72  A    between atoms: _186  and  _188
REMARK   73  A    between atoms: _188  and  _189
REMARK   74  A    between atoms: _188  and  _191
REMARK   75  A    between atoms: _191  and  _192
REMARK   76  A    between atoms: _197  and  _199
REMARK   77  A    between atoms: _199  and  _200
REMARK   78  A    between atoms: _199  and  _202
REMARK   79  A    between atoms: _202  and  _203
REMARK   80  A    between atoms: _206  and  _208
REMARK   81  A    between atoms: _208  and  _209
REMARK   82  A    between atoms: _208  and  _211
REMARK   83  A    between atoms: _211  and  _212
REMARK   84  A    between atoms: _215  and  _217
REMARK   85  A    between atoms: _217  and  _218
REMARK   86  A    between atoms: _217  and  _220
REMARK   87  A    between atoms: _220  and  _221
REMARK   88  A    between atoms: _226  and  _228
REMARK   89  A    between atoms: _228  and  _229
REMARK   90  A    between atoms: _228  and  _231
REMARK   91  A    between atoms: _231  and  _232
REMARK   92  A    between atoms: _237  and  _238
REMARK   93  A    between atoms: _240  and  _242
REMARK   94  A    between atoms: _242  and  _243
REMARK   95  A    between atoms: _242  and  _245
REMARK   96  A    between atoms: _245  and  _246
REMARK   97  A    between atoms: _249  and  _251
REMARK   98  A    between atoms: _251  and  _252
REMARK   99  A    between atoms: _251  and  _254
REMARK  100  A    between atoms: _254  and  _255
REMARK  101  A    between atoms: _260  and  _262
REMARK  102  A    between atoms: _262  and  _263
REMARK  103  A    between atoms: _262  and  _265
REMARK  104  A    between atoms: _265  and  _266
REMARK  105  A    between atoms: _271  and  _273
REMARK  106  A    between atoms: _273  and  _274
REMARK  107  A    between atoms: _273  and  _276
REMARK  108  A    between atoms: _276  and  _277
REMARK  109  A    between atoms: _280  and  _282
REMARK  110  A    between atoms: _282  and  _283
REMARK  111  A    between atoms: _282  and  _285
REMARK  112  A    between atoms: _288  and  _290
REMARK  113  A    between atoms: _290  and  _291
REMARK  114  A    between atoms: _290  and  _293
REMARK  115  A    between atoms: _293  and  _294
REMARK  116  A    between atoms: _297  and  _299
REMARK  117  A    between atoms: _299  and  _300
REMARK  118  A    between atoms: _299  and  _302
REMARK  119  A    between atoms: _302  and  _303
REMARK  120  A    between atoms: _303  and  _304
REMARK  121  A    between atoms: _307  and  _309
REMARK  122  A    between atoms: _309  and  _310
REMARK  123  A    between atoms: _313  and  _315
REMARK  124  A    between atoms: _315  and  _316
REMARK  125  A    between atoms: _315  and  _318
REMARK  126  A    between atoms: _318  and  _319
REMARK  127  A    between atoms: _322  and  _324
REMARK  128  A    between atoms: _324  and  _325
REMARK  129  A    between atoms: _324  and  _327
REMARK  130  A    between atoms: _327  and  _328
REMARK  131  A    between atoms: _328  and  _329
REMARK  132  A    between atoms: _332  and  _334
REMARK  133  A    between atoms: _334  and  _335
REMARK  134  A    between atoms: _334  and  _337
REMARK  135  A    between atoms: _337  and  _338
REMARK  136  A    between atoms: _343  and  _345
REMARK  137  A    between atoms: _345  and  _346
REMARK  138  A    between atoms: _348  and  _350
REMARK  139  A    between atoms: _350  and  _351
REMARK  140  A    between atoms: _350  and  _353
REMARK  141  A    between atoms: _356  and  _358
REMARK  142  A    between atoms: _358  and  _359
REMARK  143  A    between atoms: _362  and  _364
REMARK  144  A    between atoms: _364  and  _365
REMARK  145  A    between atoms: _364  and  _367
REMARK  146  A    between atoms: _367  and  _368
REMARK  147  A    between atoms: _373  and  _375
REMARK  148  A    between atoms: _375  and  _376
REMARK  149  A    between atoms: _375  and  _378
REMARK  150  A    between atoms: _378  and  _379
REMARK  151  A    between atoms: _379  and  _380
REMARK  152  A    between atoms: _380  and  _381
REMARK  153  A    between atoms: _381  and  _382
REMARK  154  A    between atoms: _386  and  _388
REMARK  155  A    between atoms: _388  and  _389
REMARK  156  A    between atoms: _388  and  _391
REMARK  157  A    between atoms: _391  and  _392
REMARK  158  A    between atoms: _395  and  _397
REMARK  159  A    between atoms: _397  and  _398
REMARK  160  A    between atoms: _397  and  _400
REMARK  161  A    between atoms: _400  and  _401
REMARK  162  A    between atoms: _406  and  _408
REMARK  163  A    between atoms: _408  and  _409
REMARK  164  A    between atoms: _411  and  _413
REMARK  165  A    between atoms: _413  and  _414
REMARK  166  A    between atoms: _413  and  _416
REMARK  167  A    between atoms: _416  and  _417
REMARK  168  A    between atoms: _417  and  _418
REMARK  169  A    between atoms: _418  and  _419
REMARK  170  A    between atoms: _419  and  _420
REMARK  171  A    between atoms: _424  and  _426
REMARK  172  A    between atoms: _426  and  _427
REMARK  173  A    between atoms: _426  and  _429
REMARK  174  A    between atoms: _429  and  _430
REMARK  175  A    between atoms: _430  and  _431
REMARK  176  A    between atoms: _431  and  _432
REMARK  177  A    between atoms: _441  and  _443
REMARK  178  A    between atoms: _443  and  _444
REMARK  179  A    between atoms: _443  and  _446
REMARK  180  A    between atoms: _446  and  _447
REMARK  181  A    between atoms: _452  and  _454
REMARK  182  A    between atoms: _454  and  _455
REMARK  183  A    between atoms: _454  and  _457
REMARK  184  A    between atoms: _457  and  _458
REMARK  185  A    between atoms: _463  and  _464
REMARK  186  A    between atoms: _466  and  _468
REMARK  187  A    between atoms: _468  and  _469
REMARK  188  A    between atoms: _468  and  _471
REMARK  189  A    between atoms: _471  and  _472
REMARK  190  A    between atoms: _472  and  _473
REMARK  191  A    between atoms: _473  and  _474
REMARK  192  A    between atoms: _474  and  _475
REMARK  193  A    between atoms: _479  and  _481
REMARK  194  A    between atoms: _481  and  _482
REMARK  195  A    between atoms: _481  and  _484
REMARK  196  A    between atoms: _484  and  _485
REMARK  197  A    between atoms: _487  and  _489
REMARK  198  A    between atoms: _489  and  _490
REMARK  199  A    between atoms: _489  and  _492
REMARK  200  A    between atoms: _492  and  _493
REMARK  201  A    between atoms: _496  and  _498
REMARK  202  A    between atoms: _498  and  _499
REMARK  203  A    between atoms: _498  and  _501
REMARK  204  A    between atoms: _501  and  _502
REMARK  205  A    between atoms: _502  and  _503
REMARK  206  A    between atoms: _506  and  _508
REMARK  207  A    between atoms: _508  and  _509
REMARK  208  A    between atoms: _512  and  _514
REMARK  209  A    between atoms: _514  and  _515
REMARK  210  A    between atoms: _514  and  _517
REMARK  211  A    between atoms: _517  and  _518
REMARK  212  A    between atoms: _520  and  _522
REMARK  213  A    between atoms: _522  and  _523
REMARK  214  A    between atoms: _525  and  _527
REMARK  215  A    between atoms: _527  and  _528
REMARK  216  A    between atoms: _527  and  _530
REMARK  217  A    between atoms: _530  and  _531
REMARK  218  A    between atoms: _534  and  _536
REMARK  219  A    between atoms: _536  and  _537
REMARK  220  A    between atoms: _539  and  _541
REMARK  221  A    between atoms: _541  and  _542
REMARK  222  A    between atoms: _541  and  _544
REMARK  223  A    between atoms: _544  and  _545
REMARK  224  A    between atoms: _550  and  _552
REMARK  225  A    between atoms: _552  and  _553
REMARK  226  A    between atoms: _552  and  _555
REMARK  227  A    between atoms: _555  and  _556
REMARK  228  A    between atoms: _556  and  _557
REMARK  229  A    between atoms: _564  and  _565
REMARK  230  A    between atoms: _565  and  _581
REMARK  231  A    between atoms: _566  and  _568
REMARK  232  A    between atoms: _568  and  _569
REMARK  233  A    between atoms: _569  and  _570
REMARK  234  A    between atoms: _574  and  _576
REMARK  235  A    between atoms: _576  and  _577
REMARK  236  A    between atoms: _576  and  _584
REMARK  237  A    between atoms: _577  and  _578
REMARK  238  A    between atoms: _578  and  _579
REMARK  239  A    between atoms: _579  and  _580
REMARK  240  A    between atoms: _580  and  _581
REMARK  241  A    between atoms: _586  and  _588
REMARK  242  A    between atoms: _588  and  _589
REMARK  243  A    between atoms: _588  and  _591
REMARK  244  A    between atoms: _591  and  _592
REMARK  245  A    between atoms: _595  and  _597
REMARK  246  A    between atoms: _597  and  _598
REMARK  247  A    between atoms: _600  and  _602
REMARK  248  A    between atoms: _602  and  _603
REMARK  249  A    between atoms: _606  and  _608
REMARK  250  A    between atoms: _608  and  _609
REMARK  251  A    between atoms: _608  and  _611
REMARK  252  A    between atoms: _611  and  _612
REMARK  253  A    between atoms: _617  and  _618
REMARK                            x       y       z     vdW  Elec       q    Type
REMARK                         _______ _______ _______ _____ _____    ______ ____
ROOT
ATOM      1  O   HOH     1      38.780  29.132  33.325  0.00  0.00    +0.000 OA
ENDROOT
TORSDOF 0
