REMARK  Name = ../refined-set-2016/2qi7/2qi7_pocket.pdb
REMARK  201 active torsions:
REMARK  status: ('A' for Active; 'I' for Inactive)
REMARK    1  A    between atoms: _1  and  _3
REMARK    2  A    between atoms: _3  and  _4
REMARK    3  A    between atoms: _3  and  _6
REMARK    4  A    between atoms: _6  and  _7
REMARK    5  A    between atoms: _7  and  _8
REMARK    6  A    between atoms: _8  and  _9
REMARK    7  A    between atoms: _18  and  _20
REMARK    8  A    between atoms: _20  and  _21
REMARK    9  A    between atoms: _20  and  _23
REMARK   10  A    between atoms: _23  and  _24
REMARK   11  A    between atoms: _27  and  _29
REMARK   12  A    between atoms: _29  and  _30
REMARK   13  A    between atoms: _29  and  _32
REMARK   14  A    between atoms: _32  and  _33
REMARK   15  A    between atoms: _36  and  _38
REMARK   16  A    between atoms: _38  and  _39
REMARK   17  A    between atoms: _38  and  _41
REMARK   18  A    between atoms: _41  and  _42
REMARK   19  A    between atoms: _45  and  _47
REMARK   20  A    between atoms: _47  and  _48
REMARK   21  A    between atoms: _47  and  _50
REMARK   22  A    between atoms: _50  and  _51
REMARK   23  A    between atoms: _54  and  _56
REMARK   24  A    between atoms: _56  and  _57
REMARK   25  A    between atoms: _59  and  _61
REMARK   26  A    between atoms: _61  and  _62
REMARK   27  A    between atoms: _65  and  _67
REMARK   28  A    between atoms: _67  and  _68
REMARK   29  A    between atoms: _67  and  _70
REMARK   30  A    between atoms: _70  and  _71
REMARK   31  A    between atoms: _74  and  _76
REMARK   32  A    between atoms: _76  and  _77
REMARK   33  A    between atoms: _76  and  _79
REMARK   34  A    between atoms: _79  and  _80
REMARK   35  A    between atoms: _83  and  _85
REMARK   36  A    between atoms: _85  and  _86
REMARK   37  A    between atoms: _85  and  _88
REMARK   38  A    between atoms: _88  and  _89
REMARK   39  A    between atoms: _92  and  _94
REMARK   40  A    between atoms: _94  and  _95
REMARK   41  A    between atoms: _94  and  _97
REMARK   42  A    between atoms: _100  and  _102
REMARK   43  A    between atoms: _102  and  _103
REMARK   44  A    between atoms: _102  and  _105
REMARK   45  A    between atoms: _105  and  _106
REMARK   46  A    between atoms: _109  and  _111
REMARK   47  A    between atoms: _111  and  _112
REMARK   48  A    between atoms: _114  and  _116
REMARK   49  A    between atoms: _116  and  _117
REMARK   50  A    between atoms: _119  and  _121
REMARK   51  A    between atoms: _121  and  _122
REMARK   52  A    between atoms: _121  and  _124
REMARK   53  A    between atoms: _124  and  _125
REMARK   54  A    between atoms: _128  and  _130
REMARK   55  A    between atoms: _130  and  _131
REMARK   56  A    between atoms: _133  and  _135
REMARK   57  A    between atoms: _135  and  _136
REMARK   58  A    between atoms: _138  and  _140
REMARK   59  A    between atoms: _140  and  _141
REMARK   60  A    between atoms: _140  and  _143
REMARK   61  A    between atoms: _143  and  _144
REMARK   62  A    between atoms: _150  and  _152
REMARK   63  A    between atoms: _152  and  _153
REMARK   64  A    between atoms: _152  and  _155
REMARK   65  A    between atoms: _155  and  _156
REMARK   66  A    between atoms: _160  and  _161
REMARK   67  A    between atoms: _166  and  _168
REMARK   68  A    between atoms: _168  and  _169
REMARK   69  A    between atoms: _168  and  _171
REMARK   70  A    between atoms: _174  and  _176
REMARK   71  A    between atoms: _176  and  _177
REMARK   72  A    between atoms: _176  and  _179
REMARK   73  A    between atoms: _179  and  _180
REMARK   74  A    between atoms: _185  and  _187
REMARK   75  A    between atoms: _187  and  _188
REMARK   76  A    between atoms: _187  and  _190
REMARK   77  A    between atoms: _190  and  _191
REMARK   78  A    between atoms: _194  and  _196
REMARK   79  A    between atoms: _196  and  _197
REMARK   80  A    between atoms: _196  and  _199
REMARK   81  A    between atoms: _199  and  _200
REMARK   82  A    between atoms: _203  and  _205
REMARK   83  A    between atoms: _205  and  _206
REMARK   84  A    between atoms: _208  and  _210
REMARK   85  A    between atoms: _210  and  _211
REMARK   86  A    between atoms: _210  and  _213
REMARK   87  A    between atoms: _213  and  _214
REMARK   88  A    between atoms: _214  and  _215
REMARK   89  A    between atoms: _215  and  _216
REMARK   90  A    between atoms: _225  and  _227
REMARK   91  A    between atoms: _227  and  _228
REMARK   92  A    between atoms: _227  and  _230
REMARK   93  A    between atoms: _230  and  _231
REMARK   94  A    between atoms: _231  and  _232
REMARK   95  A    between atoms: _232  and  _233
REMARK   96  A    between atoms: _242  and  _244
REMARK   97  A    between atoms: _244  and  _245
REMARK   98  A    between atoms: _244  and  _247
REMARK   99  A    between atoms: _247  and  _248
REMARK  100  A    between atoms: _251  and  _253
REMARK  101  A    between atoms: _253  and  _254
REMARK  102  A    between atoms: _253  and  _256
REMARK  103  A    between atoms: _256  and  _257
REMARK  104  A    between atoms: _260  and  _262
REMARK  105  A    between atoms: _262  and  _263
REMARK  106  A    between atoms: _262  and  _265
REMARK  107  A    between atoms: _265  and  _266
REMARK  108  A    between atoms: _269  and  _271
REMARK  109  A    between atoms: _271  and  _272
REMARK  110  A    between atoms: _271  and  _274
REMARK  111  A    between atoms: _274  and  _275
REMARK  112  A    between atoms: _278  and  _280
REMARK  113  A    between atoms: _280  and  _281
REMARK  114  A    between atoms: _283  and  _285
REMARK  115  A    between atoms: _285  and  _286
REMARK  116  A    between atoms: _289  and  _291
REMARK  117  A    between atoms: _291  and  _292
REMARK  118  A    between atoms: _291  and  _294
REMARK  119  A    between atoms: _294  and  _295
REMARK  120  A    between atoms: _298  and  _300
REMARK  121  A    between atoms: _300  and  _301
REMARK  122  A    between atoms: _300  and  _303
REMARK  123  A    between atoms: _303  and  _304
REMARK  124  A    between atoms: _307  and  _309
REMARK  125  A    between atoms: _309  and  _310
REMARK  126  A    between atoms: _309  and  _312
REMARK  127  A    between atoms: _312  and  _313
REMARK  128  A    between atoms: _316  and  _318
REMARK  129  A    between atoms: _318  and  _319
REMARK  130  A    between atoms: _318  and  _321
REMARK  131  A    between atoms: _324  and  _326
REMARK  132  A    between atoms: _326  and  _327
REMARK  133  A    between atoms: _326  and  _329
REMARK  134  A    between atoms: _329  and  _330
REMARK  135  A    between atoms: _330  and  _331
REMARK  136  A    between atoms: _331  and  _332
REMARK  137  A    between atoms: _332  and  _333
REMARK  138  A    between atoms: _337  and  _339
REMARK  139  A    between atoms: _339  and  _340
REMARK  140  A    between atoms: _339  and  _342
REMARK  141  A    between atoms: _342  and  _343
REMARK  142  A    between atoms: _343  and  _344
REMARK  143  A    between atoms: _346  and  _348
REMARK  144  A    between atoms: _348  and  _349
REMARK  145  A    between atoms: _348  and  _351
REMARK  146  A    between atoms: _351  and  _352
REMARK  147  A    between atoms: _355  and  _357
REMARK  148  A    between atoms: _357  and  _358
REMARK  149  A    between atoms: _360  and  _362
REMARK  150  A    between atoms: _362  and  _363
REMARK  151  A    between atoms: _365  and  _367
REMARK  152  A    between atoms: _367  and  _368
REMARK  153  A    between atoms: _367  and  _370
REMARK  154  A    between atoms: _370  and  _371
REMARK  155  A    between atoms: _374  and  _376
REMARK  156  A    between atoms: _376  and  _377
REMARK  157  A    between atoms: _379  and  _381
REMARK  158  A    between atoms: _381  and  _382
REMARK  159  A    between atoms: _384  and  _386
REMARK  160  A    between atoms: _386  and  _387
REMARK  161  A    between atoms: _386  and  _389
REMARK  162  A    between atoms: _389  and  _390
REMARK  163  A    between atoms: _393  and  _395
REMARK  164  A    between atoms: _395  and  _396
REMARK  165  A    between atoms: _395  and  _398
REMARK  166  A    between atoms: _401  and  _403
REMARK  167  A    between atoms: _403  and  _404
REMARK  168  A    between atoms: _403  and  _406
REMARK  169  A    between atoms: _406  and  _407
REMARK  170  A    between atoms: _410  and  _412
REMARK  171  A    between atoms: _412  and  _413
REMARK  172  A    between atoms: _412  and  _415
REMARK  173  A    between atoms: _415  and  _416
REMARK  174  A    between atoms: _420  and  _421
REMARK  175  A    between atoms: _426  and  _428
REMARK  176  A    between atoms: _428  and  _429
REMARK  177  A    between atoms: _428  and  _431
REMARK  178  A    between atoms: _434  and  _436
REMARK  179  A    between atoms: _436  and  _437
REMARK  180  A    between atoms: _436  and  _439
REMARK  181  A    between atoms: _439  and  _440
REMARK  182  A    between atoms: _445  and  _447
REMARK  183  A    between atoms: _447  and  _448
REMARK  184  A    between atoms: _447  and  _450
REMARK  185  A    between atoms: _450  and  _451
REMARK  186  A    between atoms: _454  and  _456
REMARK  187  A    between atoms: _456  and  _457
REMARK  188  A    between atoms: _456  and  _459
REMARK  189  A    between atoms: _459  and  _460
REMARK  190  A    between atoms: _463  and  _465
REMARK  191  A    between atoms: _465  and  _466
REMARK  192  A    between atoms: _468  and  _470
REMARK  193  A    between atoms: _470  and  _471
REMARK  194  A    between atoms: _470  and  _473
REMARK  195  A    between atoms: _473  and  _474
REMARK  196  A    between atoms: _474  and  _475
REMARK  197  A    between atoms: _475  and  _476
REMARK  198  A    between atoms: _485  and  _487
REMARK  199  A    between atoms: _487  and  _488
REMARK  200  A    between atoms: _487  and  _490
REMARK  201  A    between atoms: _490  and  _491
REMARK                            x       y       z     vdW  Elec       q    Type
REMARK                         _______ _______ _______ _____ _____    ______ ____
ROOT
ATOM      1  NE  ARG A   1      21.248  37.301  23.956  0.00  0.00    -0.265 N 
ATOM      2  HE  ARG A   1      20.734  37.860  24.667  0.00  0.00    +0.259 HD
ATOM      3  CZ  ARG A   1      21.053  37.624  22.675  0.00  0.00    +0.342 C 
ATOM      4  NH2 ARG A   1      20.242  38.640  22.386  0.00  0.00    -0.292 N 
ATOM      5 HH21 ARG A   1      19.774  39.166  23.152  0.00  0.00    +0.255 HD
ATOM      6 HH22 ARG A   1      20.077  38.908  21.395  0.00  0.00    +0.255 HD
ATOM      7  NH1 ARG A   1      21.640  36.944  21.674  0.00  0.00    -0.292 N 
ATOM      8 HH11 ARG A   1      22.266  36.142  21.888  0.00  0.00    +0.255 HD
ATOM      9 HH12 ARG A   1      21.468  37.221  20.686  0.00  0.00    +0.255 HD
ENDROOT
BRANCH   1  10
ATOM     10  CD  ARG A   1      22.116  36.236  24.451  0.00  0.00    +0.174 C 
BRANCH  10  11
ATOM     11  CG  ARG A   1      21.382  35.212  25.288  0.00  0.00    +0.045 C 
BRANCH  11  12
ATOM     12  CB  ARG A   1      22.366  34.450  26.131  0.00  0.00    +0.029 C 
BRANCH  12  13
ATOM     13  CA  ARG A   1      21.738  33.419  27.067  0.00  0.00    +0.133 C 
BRANCH  13  14
ATOM     14  N   ARG A   1      21.032  34.065  28.183  0.00  0.00    -0.239 NA
ATOM     15  H   ARG A   1      20.980  35.103  28.221  0.00  0.00    +0.142 HD
ENDBRANCH  13  14
BRANCH  13  16
ATOM     16  C   ARG A   1      22.856  32.527  27.607  0.00  0.00    +0.224 C 
ATOM     17  O   ARG A   1      23.654  32.977  28.441  0.00  0.00    -0.287 OA
ENDBRANCH  13  16
ENDBRANCH  12  13
ENDBRANCH  11  12
ENDBRANCH  10  11
ENDBRANCH   1  10
TORSDOF 6
REMARK  Name = ../refined-set-2016/2qi7/2qi7_pocket.pdb
REMARK  201 active torsions:
REMARK  status: ('A' for Active; 'I' for Inactive)
REMARK    1  A    between atoms: _1  and  _3
REMARK    2  A    between atoms: _3  and  _4
REMARK    3  A    between atoms: _3  and  _6
REMARK    4  A    between atoms: _6  and  _7
REMARK    5  A    between atoms: _7  and  _8
REMARK    6  A    between atoms: _8  and  _9
REMARK    7  A    between atoms: _18  and  _20
REMARK    8  A    between atoms: _20  and  _21
REMARK    9  A    between atoms: _20  and  _23
REMARK   10  A    between atoms: _23  and  _24
REMARK   11  A    between atoms: _27  and  _29
REMARK   12  A    between atoms: _29  and  _30
REMARK   13  A    between atoms: _29  and  _32
REMARK   14  A    between atoms: _32  and  _33
REMARK   15  A    between atoms: _36  and  _38
REMARK   16  A    between atoms: _38  and  _39
REMARK   17  A    between atoms: _38  and  _41
REMARK   18  A    between atoms: _41  and  _42
REMARK   19  A    between atoms: _45  and  _47
REMARK   20  A    between atoms: _47  and  _48
REMARK   21  A    between atoms: _47  and  _50
REMARK   22  A    between atoms: _50  and  _51
REMARK   23  A    between atoms: _54  and  _56
REMARK   24  A    between atoms: _56  and  _57
REMARK   25  A    between atoms: _59  and  _61
REMARK   26  A    between atoms: _61  and  _62
REMARK   27  A    between atoms: _65  and  _67
REMARK   28  A    between atoms: _67  and  _68
REMARK   29  A    between atoms: _67  and  _70
REMARK   30  A    between atoms: _70  and  _71
REMARK   31  A    between atoms: _74  and  _76
REMARK   32  A    between atoms: _76  and  _77
REMARK   33  A    between atoms: _76  and  _79
REMARK   34  A    between atoms: _79  and  _80
REMARK   35  A    between atoms: _83  and  _85
REMARK   36  A    between atoms: _85  and  _86
REMARK   37  A    between atoms: _85  and  _88
REMARK   38  A    between atoms: _88  and  _89
REMARK   39  A    between atoms: _92  and  _94
REMARK   40  A    between atoms: _94  and  _95
REMARK   41  A    between atoms: _94  and  _97
REMARK   42  A    between atoms: _100  and  _102
REMARK   43  A    between atoms: _102  and  _103
REMARK   44  A    between atoms: _102  and  _105
REMARK   45  A    between atoms: _105  and  _106
REMARK   46  A    between atoms: _109  and  _111
REMARK   47  A    between atoms: _111  and  _112
REMARK   48  A    between atoms: _114  and  _116
REMARK   49  A    between atoms: _116  and  _117
REMARK   50  A    between atoms: _119  and  _121
REMARK   51  A    between atoms: _121  and  _122
REMARK   52  A    between atoms: _121  and  _124
REMARK   53  A    between atoms: _124  and  _125
REMARK   54  A    between atoms: _128  and  _130
REMARK   55  A    between atoms: _130  and  _131
REMARK   56  A    between atoms: _133  and  _135
REMARK   57  A    between atoms: _135  and  _136
REMARK   58  A    between atoms: _138  and  _140
REMARK   59  A    between atoms: _140  and  _141
REMARK   60  A    between atoms: _140  and  _143
REMARK   61  A    between atoms: _143  and  _144
REMARK   62  A    between atoms: _150  and  _152
REMARK   63  A    between atoms: _152  and  _153
REMARK   64  A    between atoms: _152  and  _155
REMARK   65  A    between atoms: _155  and  _156
REMARK   66  A    between atoms: _160  and  _161
REMARK   67  A    between atoms: _166  and  _168
REMARK   68  A    between atoms: _168  and  _169
REMARK   69  A    between atoms: _168  and  _171
REMARK   70  A    between atoms: _174  and  _176
REMARK   71  A    between atoms: _176  and  _177
REMARK   72  A    between atoms: _176  and  _179
REMARK   73  A    between atoms: _179  and  _180
REMARK   74  A    between atoms: _185  and  _187
REMARK   75  A    between atoms: _187  and  _188
REMARK   76  A    between atoms: _187  and  _190
REMARK   77  A    between atoms: _190  and  _191
REMARK   78  A    between atoms: _194  and  _196
REMARK   79  A    between atoms: _196  and  _197
REMARK   80  A    between atoms: _196  and  _199
REMARK   81  A    between atoms: _199  and  _200
REMARK   82  A    between atoms: _203  and  _205
REMARK   83  A    between atoms: _205  and  _206
REMARK   84  A    between atoms: _208  and  _210
REMARK   85  A    between atoms: _210  and  _211
REMARK   86  A    between atoms: _210  and  _213
REMARK   87  A    between atoms: _213  and  _214
REMARK   88  A    between atoms: _214  and  _215
REMARK   89  A    between atoms: _215  and  _216
REMARK   90  A    between atoms: _225  and  _227
REMARK   91  A    between atoms: _227  and  _228
REMARK   92  A    between atoms: _227  and  _230
REMARK   93  A    between atoms: _230  and  _231
REMARK   94  A    between atoms: _231  and  _232
REMARK   95  A    between atoms: _232  and  _233
REMARK   96  A    between atoms: _242  and  _244
REMARK   97  A    between atoms: _244  and  _245
REMARK   98  A    between atoms: _244  and  _247
REMARK   99  A    between atoms: _247  and  _248
REMARK  100  A    between atoms: _251  and  _253
REMARK  101  A    between atoms: _253  and  _254
REMARK  102  A    between atoms: _253  and  _256
REMARK  103  A    between atoms: _256  and  _257
REMARK  104  A    between atoms: _260  and  _262
REMARK  105  A    between atoms: _262  and  _263
REMARK  106  A    between atoms: _262  and  _265
REMARK  107  A    between atoms: _265  and  _266
REMARK  108  A    between atoms: _269  and  _271
REMARK  109  A    between atoms: _271  and  _272
REMARK  110  A    between atoms: _271  and  _274
REMARK  111  A    between atoms: _274  and  _275
REMARK  112  A    between atoms: _278  and  _280
REMARK  113  A    between atoms: _280  and  _281
REMARK  114  A    between atoms: _283  and  _285
REMARK  115  A    between atoms: _285  and  _286
REMARK  116  A    between atoms: _289  and  _291
REMARK  117  A    between atoms: _291  and  _292
REMARK  118  A    between atoms: _291  and  _294
REMARK  119  A    between atoms: _294  and  _295
REMARK  120  A    between atoms: _298  and  _300
REMARK  121  A    between atoms: _300  and  _301
REMARK  122  A    between atoms: _300  and  _303
REMARK  123  A    between atoms: _303  and  _304
REMARK  124  A    between atoms: _307  and  _309
REMARK  125  A    between atoms: _309  and  _310
REMARK  126  A    between atoms: _309  and  _312
REMARK  127  A    between atoms: _312  and  _313
REMARK  128  A    between atoms: _316  and  _318
REMARK  129  A    between atoms: _318  and  _319
REMARK  130  A    between atoms: _318  and  _321
REMARK  131  A    between atoms: _324  and  _326
REMARK  132  A    between atoms: _326  and  _327
REMARK  133  A    between atoms: _326  and  _329
REMARK  134  A    between atoms: _329  and  _330
REMARK  135  A    between atoms: _330  and  _331
REMARK  136  A    between atoms: _331  and  _332
REMARK  137  A    between atoms: _332  and  _333
REMARK  138  A    between atoms: _337  and  _339
REMARK  139  A    between atoms: _339  and  _340
REMARK  140  A    between atoms: _339  and  _342
REMARK  141  A    between atoms: _342  and  _343
REMARK  142  A    between atoms: _343  and  _344
REMARK  143  A    between atoms: _346  and  _348
REMARK  144  A    between atoms: _348  and  _349
REMARK  145  A    between atoms: _348  and  _351
REMARK  146  A    between atoms: _351  and  _352
REMARK  147  A    between atoms: _355  and  _357
REMARK  148  A    between atoms: _357  and  _358
REMARK  149  A    between atoms: _360  and  _362
REMARK  150  A    between atoms: _362  and  _363
REMARK  151  A    between atoms: _365  and  _367
REMARK  152  A    between atoms: _367  and  _368
REMARK  153  A    between atoms: _367  and  _370
REMARK  154  A    between atoms: _370  and  _371
REMARK  155  A    between atoms: _374  and  _376
REMARK  156  A    between atoms: _376  and  _377
REMARK  157  A    between atoms: _379  and  _381
REMARK  158  A    between atoms: _381  and  _382
REMARK  159  A    between atoms: _384  and  _386
REMARK  160  A    between atoms: _386  and  _387
REMARK  161  A    between atoms: _386  and  _389
REMARK  162  A    between atoms: _389  and  _390
REMARK  163  A    between atoms: _393  and  _395
REMARK  164  A    between atoms: _395  and  _396
REMARK  165  A    between atoms: _395  and  _398
REMARK  166  A    between atoms: _401  and  _403
REMARK  167  A    between atoms: _403  and  _404
REMARK  168  A    between atoms: _403  and  _406
REMARK  169  A    between atoms: _406  and  _407
REMARK  170  A    between atoms: _410  and  _412
REMARK  171  A    between atoms: _412  and  _413
REMARK  172  A    between atoms: _412  and  _415
REMARK  173  A    between atoms: _415  and  _416
REMARK  174  A    between atoms: _420  and  _421
REMARK  175  A    between atoms: _426  and  _428
REMARK  176  A    between atoms: _428  and  _429
REMARK  177  A    between atoms: _428  and  _431
REMARK  178  A    between atoms: _434  and  _436
REMARK  179  A    between atoms: _436  and  _437
REMARK  180  A    between atoms: _436  and  _439
REMARK  181  A    between atoms: _439  and  _440
REMARK  182  A    between atoms: _445  and  _447
REMARK  183  A    between atoms: _447  and  _448
REMARK  184  A    between atoms: _447  and  _450
REMARK  185  A    between atoms: _450  and  _451
REMARK  186  A    between atoms: _454  and  _456
REMARK  187  A    between atoms: _456  and  _457
REMARK  188  A    between atoms: _456  and  _459
REMARK  189  A    between atoms: _459  and  _460
REMARK  190  A    between atoms: _463  and  _465
REMARK  191  A    between atoms: _465  and  _466
REMARK  192  A    between atoms: _468  and  _470
REMARK  193  A    between atoms: _470  and  _471
REMARK  194  A    between atoms: _470  and  _473
REMARK  195  A    between atoms: _473  and  _474
REMARK  196  A    between atoms: _474  and  _475
REMARK  197  A    between atoms: _475  and  _476
REMARK  198  A    between atoms: _485  and  _487
REMARK  199  A    between atoms: _487  and  _488
REMARK  200  A    between atoms: _487  and  _490
REMARK  201  A    between atoms: _490  and  _491
REMARK                            x       y       z     vdW  Elec       q    Type
REMARK                         _______ _______ _______ _____ _____    ______ ____
ROOT
ATOM      1  C   GLY A   5      20.586  25.186  15.803  0.00  0.00    +0.243 C 
ATOM      2  N   ALA A   6      21.885  25.158  16.104  0.00  0.00    -0.297 N 
ATOM      3  H   ALA A   6      22.167  25.067  17.101  0.00  0.00    +0.150 HD
ATOM      4  O   GLY A   5      20.163  25.305  14.648  0.00  0.00    -0.273 OA
ENDROOT
BRANCH   2   5
ATOM      5  CA  ALA A   6      22.925  25.250  15.084  0.00  0.00    +0.149 C 
ATOM      6  CB  ALA A   6      23.955  26.301  15.480  0.00  0.00    +0.031 C 
BRANCH   5   7
ATOM      7  C   ALA A   6      23.595  23.892  14.839  0.00  0.00    +0.241 C 
ATOM      8  O   ALA A   6      24.113  23.269  15.768  0.00  0.00    -0.273 OA
ATOM      9  N   ASP A   7      23.584  23.442  13.582  0.00  0.00    -0.297 N 
ATOM     10  H   ASP A   7      23.058  23.971  12.857  0.00  0.00    +0.150 HD
BRANCH   9  11
ATOM     11  CA  ASP A   7      24.298  22.217  13.201  0.00  0.00    +0.160 C 
BRANCH  11  12
ATOM     12  C   ASP A   7      25.807  22.403  13.373  0.00  0.00    +0.241 C 
ATOM     13  O   ASP A   7      26.534  21.478  13.772  0.00  0.00    -0.273 OA
ATOM     14  N   ASP A   8      26.271  23.596  13.024  0.00  0.00    -0.297 N 
ATOM     15  H   ASP A   8      25.594  24.364  12.839  0.00  0.00    +0.150 HD
BRANCH  14  16
ATOM     16  CA  ASP A   8      27.688  23.866  12.892  0.00  0.00    +0.160 C 
BRANCH  16  17
ATOM     17  C   ASP A   8      28.129  24.947  13.853  0.00  0.00    +0.241 C 
ATOM     18  O   ASP A   8      27.331  25.790  14.273  0.00  0.00    -0.273 OA
ATOM     19  N   THR A   9      29.420  24.937  14.162  0.00  0.00    -0.295 N 
ATOM     20  H   THR A   9      30.009  24.149  13.826  0.00  0.00    +0.150 HD
BRANCH  19  21
ATOM     21  CA  THR A   9      30.041  25.987  14.953  0.00  0.00    +0.176 C 
BRANCH  21  22
ATOM     22  C   THR A   9      30.513  27.110  14.028  0.00  0.00    +0.243 C 
ATOM     23  N   VAL A  10      30.074  28.332  14.321  0.00  0.00    -0.298 N 
ATOM     24  H   VAL A  10      29.500  28.469  15.178  0.00  0.00    +0.150 HD
ATOM     25  O   THR A   9      31.232  26.865  13.062  0.00  0.00    -0.273 OA
BRANCH  23  26
ATOM     26  CA  VAL A  10      30.372  29.486  13.478  0.00  0.00    +0.137 C 
BRANCH  26  27
ATOM     27  CB  VAL A  10      29.144  29.946  12.670  0.00  0.00    +0.026 C 
ATOM     28  CG2 VAL A  10      28.367  28.757  12.141  0.00  0.00    +0.002 C 
ATOM     29  CG1 VAL A  10      29.595  30.822  11.504  0.00  0.00    +0.002 C 
ENDBRANCH  26  27
BRANCH  26  30
ATOM     30  C   VAL A  10      30.892  30.637  14.332  0.00  0.00    +0.227 C 
ATOM     31  O   VAL A  10      30.201  31.112  15.234  0.00  0.00    -0.286 OA
ENDBRANCH  26  30
ENDBRANCH  23  26
ENDBRANCH  21  22
BRANCH  21  32
ATOM     32  CB  THR A   9      31.197  25.409  15.769  0.00  0.00    +0.137 C 
ATOM     33  CG2 THR A   9      32.014  26.508  16.472  0.00  0.00    +0.034 C 
BRANCH  32  34
ATOM     34  OG1 THR A   9      30.654  24.487  16.729  0.00  0.00    -0.382 OA
ATOM     35  HG1 THR A   9      30.176  23.761  16.254  0.00  0.00    +0.210 HD
ENDBRANCH  32  34
ENDBRANCH  21  32
ENDBRANCH  19  21
ENDBRANCH  16  17
BRANCH  16  36
ATOM     36  CB  ASP A   8      27.995  24.330  11.461  0.00  0.00    +0.143 C 
BRANCH  36  37
ATOM     37  CG  ASP A   8      27.689  23.275  10.417  0.00  0.00    +0.367 C 
ATOM     38  OD2 ASP A   8      27.723  22.072  10.738  0.00  0.00    -0.246 OA
ATOM     39  OD1 ASP A   8      27.423  23.663   9.257  0.00  0.00    -0.246 OA
ENDBRANCH  36  37
ENDBRANCH  16  36
ENDBRANCH  14  16
ENDBRANCH  11  12
BRANCH  11  40
ATOM     40  CB  ASP A   7      24.071  21.866  11.729  0.00  0.00    +0.143 C 
BRANCH  40  41
ATOM     41  CG  ASP A   7      22.634  21.515  11.390  0.00  0.00    +0.367 C 
ATOM     42  OD2 ASP A   7      21.756  21.351  12.267  0.00  0.00    -0.246 OA
ATOM     43  OD1 ASP A   7      22.397  21.376  10.179  0.00  0.00    -0.246 OA
ENDBRANCH  40  41
ENDBRANCH  11  40
ENDBRANCH   9  11
ENDBRANCH   5   7
ENDBRANCH   2   5
BRANCH   1  44
ATOM     44  CA  GLY A   5      19.612  25.039  16.959  0.00  0.00    +0.176 C 
BRANCH  44  46
ATOM     45  C   THR A   4      20.707  23.681  18.677  0.00  0.00    +0.243 C 
ATOM     46  N   GLY A   5      20.237  24.857  18.272  0.00  0.00    -0.295 N 
ATOM     47  H   GLY A   5      20.316  25.676  18.909  0.00  0.00    +0.150 HD
ATOM     48  O   THR A   4      20.599  22.647  18.009  0.00  0.00    -0.273 OA
BRANCH  45  49
ATOM     49  CA  THR A   4      21.440  23.655  20.026  0.00  0.00    +0.176 C 
BRANCH  49  51
ATOM     50  C   ASP A   3      22.902  25.580  19.766  0.00  0.00    +0.241 C 
ATOM     51  N   THR A   4      21.923  24.974  20.431  0.00  0.00    -0.295 N 
ATOM     52  H   THR A   4      21.494  25.446  21.252  0.00  0.00    +0.150 HD
ATOM     53  O   ASP A   3      23.395  25.106  18.752  0.00  0.00    -0.273 OA
BRANCH  50  54
ATOM     54  CA  ASP A   3      23.365  26.927  20.325  0.00  0.00    +0.160 C 
BRANCH  54  57
ATOM     55  C   LEU A   2      24.432  27.263  22.476  0.00  0.00    +0.241 C 
ATOM     56  O   LEU A   2      23.410  27.669  23.014  0.00  0.00    -0.273 OA
ATOM     57  N   ASP A   3      24.453  26.741  21.251  0.00  0.00    -0.297 N 
ATOM     58  H   ASP A   3      25.279  26.183  20.954  0.00  0.00    +0.150 HD
BRANCH  55  59
ATOM     59  CA  LEU A   2      25.774  27.340  23.193  0.00  0.00    +0.149 C 
BRANCH  59  61
ATOM     60  C   LEU A   1      26.527  29.479  22.325  0.00  0.00    +0.238 C 
ATOM     61  N   LEU A   2      26.119  28.742  23.360  0.00  0.00    -0.297 N 
ATOM     62  H   LEU A   2      26.047  29.178  24.301  0.00  0.00    +0.150 HD
ATOM     63  O   LEU A   1      26.746  29.004  21.201  0.00  0.00    -0.274 OA
BRANCH  60  64
ATOM     64  CA  LEU A   1      26.729  30.967  22.596  0.00  0.00    +0.145 C 
BRANCH  64  65
ATOM     65  N   LEU A   1      28.067  31.374  22.219  0.00  0.00    -0.238 NA
ATOM     66  H   LEU A   1      28.247  31.595  21.219  0.00  0.00    +0.142 HD
ENDBRANCH  64  65
BRANCH  64  67
ATOM     67  CB  LEU A   1      25.726  31.791  21.791  0.00  0.00    +0.026 C 
BRANCH  67  68
ATOM     68  CG  LEU A   1      24.242  31.571  22.062  0.00  0.00    +0.002 C 
ATOM     69  CD2 LEU A   1      23.831  32.166  23.370  0.00  0.00    +0.000 C 
ATOM     70  CD1 LEU A   1      23.433  32.173  20.906  0.00  0.00    +0.000 C 
ENDBRANCH  67  68
ENDBRANCH  64  67
ENDBRANCH  60  64
ENDBRANCH  59  61
BRANCH  59  71
ATOM     71  CB  LEU A   2      25.721  26.628  24.546  0.00  0.00    +0.029 C 
BRANCH  71  72
ATOM     72  CG  LEU A   2      27.009  26.720  25.371  0.00  0.00    +0.002 C 
ATOM     73  CD2 LEU A   2      26.819  26.011  26.714  0.00  0.00    +0.000 C 
ATOM     74  CD1 LEU A   2      28.194  26.123  24.597  0.00  0.00    +0.000 C 
ENDBRANCH  71  72
ENDBRANCH  59  71
ENDBRANCH  55  59
ENDBRANCH  54  57
BRANCH  54  75
ATOM     75  CB  ASP A   3      23.841  27.878  19.210  0.00  0.00    +0.143 C 
BRANCH  75  76
ATOM     76  CG  ASP A   3      22.734  28.294  18.283  0.00  0.00    +0.367 C 
ATOM     77  OD2 ASP A   3      21.621  27.700  18.351  0.00  0.00    -0.246 OA
ATOM     78  OD1 ASP A   3      22.984  29.224  17.486  0.00  0.00    -0.246 OA
ENDBRANCH  75  76
ENDBRANCH  54  75
ENDBRANCH  50  54
ENDBRANCH  49  51
BRANCH  49  79
ATOM     79  CB  THR A   4      20.526  23.042  21.083  0.00  0.00    +0.137 C 
ATOM     80  CG2 THR A   4      21.299  22.812  22.383  0.00  0.00    +0.034 C 
BRANCH  79  81
ATOM     81  OG1 THR A   4      19.406  23.904  21.331  0.00  0.00    -0.382 OA
ATOM     82  HG1 THR A   4      18.895  24.028  20.492  0.00  0.00    +0.210 HD
ENDBRANCH  79  81
ENDBRANCH  49  79
ENDBRANCH  45  49
ENDBRANCH  44  46
ENDBRANCH   1  44
TORSDOF 35
REMARK  Name = ../refined-set-2016/2qi7/2qi7_pocket.pdb
REMARK  201 active torsions:
REMARK  status: ('A' for Active; 'I' for Inactive)
REMARK    1  A    between atoms: _1  and  _3
REMARK    2  A    between atoms: _3  and  _4
REMARK    3  A    between atoms: _3  and  _6
REMARK    4  A    between atoms: _6  and  _7
REMARK    5  A    between atoms: _7  and  _8
REMARK    6  A    between atoms: _8  and  _9
REMARK    7  A    between atoms: _18  and  _20
REMARK    8  A    between atoms: _20  and  _21
REMARK    9  A    between atoms: _20  and  _23
REMARK   10  A    between atoms: _23  and  _24
REMARK   11  A    between atoms: _27  and  _29
REMARK   12  A    between atoms: _29  and  _30
REMARK   13  A    between atoms: _29  and  _32
REMARK   14  A    between atoms: _32  and  _33
REMARK   15  A    between atoms: _36  and  _38
REMARK   16  A    between atoms: _38  and  _39
REMARK   17  A    between atoms: _38  and  _41
REMARK   18  A    between atoms: _41  and  _42
REMARK   19  A    between atoms: _45  and  _47
REMARK   20  A    between atoms: _47  and  _48
REMARK   21  A    between atoms: _47  and  _50
REMARK   22  A    between atoms: _50  and  _51
REMARK   23  A    between atoms: _54  and  _56
REMARK   24  A    between atoms: _56  and  _57
REMARK   25  A    between atoms: _59  and  _61
REMARK   26  A    between atoms: _61  and  _62
REMARK   27  A    between atoms: _65  and  _67
REMARK   28  A    between atoms: _67  and  _68
REMARK   29  A    between atoms: _67  and  _70
REMARK   30  A    between atoms: _70  and  _71
REMARK   31  A    between atoms: _74  and  _76
REMARK   32  A    between atoms: _76  and  _77
REMARK   33  A    between atoms: _76  and  _79
REMARK   34  A    between atoms: _79  and  _80
REMARK   35  A    between atoms: _83  and  _85
REMARK   36  A    between atoms: _85  and  _86
REMARK   37  A    between atoms: _85  and  _88
REMARK   38  A    between atoms: _88  and  _89
REMARK   39  A    between atoms: _92  and  _94
REMARK   40  A    between atoms: _94  and  _95
REMARK   41  A    between atoms: _94  and  _97
REMARK   42  A    between atoms: _100  and  _102
REMARK   43  A    between atoms: _102  and  _103
REMARK   44  A    between atoms: _102  and  _105
REMARK   45  A    between atoms: _105  and  _106
REMARK   46  A    between atoms: _109  and  _111
REMARK   47  A    between atoms: _111  and  _112
REMARK   48  A    between atoms: _114  and  _116
REMARK   49  A    between atoms: _116  and  _117
REMARK   50  A    between atoms: _119  and  _121
REMARK   51  A    between atoms: _121  and  _122
REMARK   52  A    between atoms: _121  and  _124
REMARK   53  A    between atoms: _124  and  _125
REMARK   54  A    between atoms: _128  and  _130
REMARK   55  A    between atoms: _130  and  _131
REMARK   56  A    between atoms: _133  and  _135
REMARK   57  A    between atoms: _135  and  _136
REMARK   58  A    between atoms: _138  and  _140
REMARK   59  A    between atoms: _140  and  _141
REMARK   60  A    between atoms: _140  and  _143
REMARK   61  A    between atoms: _143  and  _144
REMARK   62  A    between atoms: _150  and  _152
REMARK   63  A    between atoms: _152  and  _153
REMARK   64  A    between atoms: _152  and  _155
REMARK   65  A    between atoms: _155  and  _156
REMARK   66  A    between atoms: _160  and  _161
REMARK   67  A    between atoms: _166  and  _168
REMARK   68  A    between atoms: _168  and  _169
REMARK   69  A    between atoms: _168  and  _171
REMARK   70  A    between atoms: _174  and  _176
REMARK   71  A    between atoms: _176  and  _177
REMARK   72  A    between atoms: _176  and  _179
REMARK   73  A    between atoms: _179  and  _180
REMARK   74  A    between atoms: _185  and  _187
REMARK   75  A    between atoms: _187  and  _188
REMARK   76  A    between atoms: _187  and  _190
REMARK   77  A    between atoms: _190  and  _191
REMARK   78  A    between atoms: _194  and  _196
REMARK   79  A    between atoms: _196  and  _197
REMARK   80  A    between atoms: _196  and  _199
REMARK   81  A    between atoms: _199  and  _200
REMARK   82  A    between atoms: _203  and  _205
REMARK   83  A    between atoms: _205  and  _206
REMARK   84  A    between atoms: _208  and  _210
REMARK   85  A    between atoms: _210  and  _211
REMARK   86  A    between atoms: _210  and  _213
REMARK   87  A    between atoms: _213  and  _214
REMARK   88  A    between atoms: _214  and  _215
REMARK   89  A    between atoms: _215  and  _216
REMARK   90  A    between atoms: _225  and  _227
REMARK   91  A    between atoms: _227  and  _228
REMARK   92  A    between atoms: _227  and  _230
REMARK   93  A    between atoms: _230  and  _231
REMARK   94  A    between atoms: _231  and  _232
REMARK   95  A    between atoms: _232  and  _233
REMARK   96  A    between atoms: _242  and  _244
REMARK   97  A    between atoms: _244  and  _245
REMARK   98  A    between atoms: _244  and  _247
REMARK   99  A    between atoms: _247  and  _248
REMARK  100  A    between atoms: _251  and  _253
REMARK  101  A    between atoms: _253  and  _254
REMARK  102  A    between atoms: _253  and  _256
REMARK  103  A    between atoms: _256  and  _257
REMARK  104  A    between atoms: _260  and  _262
REMARK  105  A    between atoms: _262  and  _263
REMARK  106  A    between atoms: _262  and  _265
REMARK  107  A    between atoms: _265  and  _266
REMARK  108  A    between atoms: _269  and  _271
REMARK  109  A    between atoms: _271  and  _272
REMARK  110  A    between atoms: _271  and  _274
REMARK  111  A    between atoms: _274  and  _275
REMARK  112  A    between atoms: _278  and  _280
REMARK  113  A    between atoms: _280  and  _281
REMARK  114  A    between atoms: _283  and  _285
REMARK  115  A    between atoms: _285  and  _286
REMARK  116  A    between atoms: _289  and  _291
REMARK  117  A    between atoms: _291  and  _292
REMARK  118  A    between atoms: _291  and  _294
REMARK  119  A    between atoms: _294  and  _295
REMARK  120  A    between atoms: _298  and  _300
REMARK  121  A    between atoms: _300  and  _301
REMARK  122  A    between atoms: _300  and  _303
REMARK  123  A    between atoms: _303  and  _304
REMARK  124  A    between atoms: _307  and  _309
REMARK  125  A    between atoms: _309  and  _310
REMARK  126  A    between atoms: _309  and  _312
REMARK  127  A    between atoms: _312  and  _313
REMARK  128  A    between atoms: _316  and  _318
REMARK  129  A    between atoms: _318  and  _319
REMARK  130  A    between atoms: _318  and  _321
REMARK  131  A    between atoms: _324  and  _326
REMARK  132  A    between atoms: _326  and  _327
REMARK  133  A    between atoms: _326  and  _329
REMARK  134  A    between atoms: _329  and  _330
REMARK  135  A    between atoms: _330  and  _331
REMARK  136  A    between atoms: _331  and  _332
REMARK  137  A    between atoms: _332  and  _333
REMARK  138  A    between atoms: _337  and  _339
REMARK  139  A    between atoms: _339  and  _340
REMARK  140  A    between atoms: _339  and  _342
REMARK  141  A    between atoms: _342  and  _343
REMARK  142  A    between atoms: _343  and  _344
REMARK  143  A    between atoms: _346  and  _348
REMARK  144  A    between atoms: _348  and  _349
REMARK  145  A    between atoms: _348  and  _351
REMARK  146  A    between atoms: _351  and  _352
REMARK  147  A    between atoms: _355  and  _357
REMARK  148  A    between atoms: _357  and  _358
REMARK  149  A    between atoms: _360  and  _362
REMARK  150  A    between atoms: _362  and  _363
REMARK  151  A    between atoms: _365  and  _367
REMARK  152  A    between atoms: _367  and  _368
REMARK  153  A    between atoms: _367  and  _370
REMARK  154  A    between atoms: _370  and  _371
REMARK  155  A    between atoms: _374  and  _376
REMARK  156  A    between atoms: _376  and  _377
REMARK  157  A    between atoms: _379  and  _381
REMARK  158  A    between atoms: _381  and  _382
REMARK  159  A    between atoms: _384  and  _386
REMARK  160  A    between atoms: _386  and  _387
REMARK  161  A    between atoms: _386  and  _389
REMARK  162  A    between atoms: _389  and  _390
REMARK  163  A    between atoms: _393  and  _395
REMARK  164  A    between atoms: _395  and  _396
REMARK  165  A    between atoms: _395  and  _398
REMARK  166  A    between atoms: _401  and  _403
REMARK  167  A    between atoms: _403  and  _404
REMARK  168  A    between atoms: _403  and  _406
REMARK  169  A    between atoms: _406  and  _407
REMARK  170  A    between atoms: _410  and  _412
REMARK  171  A    between atoms: _412  and  _413
REMARK  172  A    between atoms: _412  and  _415
REMARK  173  A    between atoms: _415  and  _416
REMARK  174  A    between atoms: _420  and  _421
REMARK  175  A    between atoms: _426  and  _428
REMARK  176  A    between atoms: _428  and  _429
REMARK  177  A    between atoms: _428  and  _431
REMARK  178  A    between atoms: _434  and  _436
REMARK  179  A    between atoms: _436  and  _437
REMARK  180  A    between atoms: _436  and  _439
REMARK  181  A    between atoms: _439  and  _440
REMARK  182  A    between atoms: _445  and  _447
REMARK  183  A    between atoms: _447  and  _448
REMARK  184  A    between atoms: _447  and  _450
REMARK  185  A    between atoms: _450  and  _451
REMARK  186  A    between atoms: _454  and  _456
REMARK  187  A    between atoms: _456  and  _457
REMARK  188  A    between atoms: _456  and  _459
REMARK  189  A    between atoms: _459  and  _460
REMARK  190  A    between atoms: _463  and  _465
REMARK  191  A    between atoms: _465  and  _466
REMARK  192  A    between atoms: _468  and  _470
REMARK  193  A    between atoms: _470  and  _471
REMARK  194  A    between atoms: _470  and  _473
REMARK  195  A    between atoms: _473  and  _474
REMARK  196  A    between atoms: _474  and  _475
REMARK  197  A    between atoms: _475  and  _476
REMARK  198  A    between atoms: _485  and  _487
REMARK  199  A    between atoms: _487  and  _488
REMARK  200  A    between atoms: _487  and  _490
REMARK  201  A    between atoms: _490  and  _491
REMARK                            x       y       z     vdW  Elec       q    Type
REMARK                         _______ _______ _______ _____ _____    ______ ____
ROOT
ATOM      1  CA  ILE A   4      17.118  32.439   9.412  0.00  0.00    +0.149 C 
ENDROOT
BRANCH   1   2
ATOM      2  C   ILE A   4      16.965  33.500   8.323  0.00  0.00    +0.241 C 
ATOM      3  N   GLY A   5      18.035  34.258   8.085  0.00  0.00    -0.295 N 
ATOM      4  H   GLY A   5      18.920  34.056   8.593  0.00  0.00    +0.150 HD
ATOM      5  O   ILE A   4      15.900  33.617   7.698  0.00  0.00    -0.273 OA
BRANCH   3   6
ATOM      6  CA  GLY A   5      18.002  35.367   7.130  0.00  0.00    +0.176 C 
BRANCH   6   7
ATOM      7  C   GLY A   5      18.530  35.117   5.732  0.00  0.00    +0.243 C 
ATOM      8  N   GLY A   6      18.919  33.881   5.434  0.00  0.00    -0.295 N 
ATOM      9  H   GLY A   6      18.794  33.132   6.145  0.00  0.00    +0.150 HD
ATOM     10  O   GLY A   5      18.554  36.041   4.914  0.00  0.00    -0.273 OA
BRANCH   8  11
ATOM     11  CA  GLY A   6      19.508  33.540   4.162  0.00  0.00    +0.176 C 
BRANCH  11  12
ATOM     12  C   GLY A   6      20.874  32.900   4.327  0.00  0.00    +0.243 C 
ATOM     13  O   GLY A   6      21.230  32.396   5.405  0.00  0.00    -0.273 OA
ATOM     14  N   PHE A   7      21.649  32.953   3.251  0.00  0.00    -0.298 N 
ATOM     15  H   PHE A   7      21.332  33.516   2.436  0.00  0.00    +0.150 HD
BRANCH  14  16
ATOM     16  CA  PHE A   7      22.921  32.258   3.165  0.00  0.00    +0.141 C 
BRANCH  16  17
ATOM     17  C   PHE A   7      24.081  33.229   3.238  0.00  0.00    +0.227 C 
ATOM     18  O   PHE A   7      23.986  34.366   2.765  0.00  0.00    -0.286 OA
ENDBRANCH  16  17
BRANCH  16  19
ATOM     19  CB  PHE A   7      22.997  31.443   1.867  0.00  0.00    +0.054 C 
BRANCH  19  20
ATOM     20  CG  PHE A   7      22.279  30.134   1.960  0.00  0.00    -0.020 A 
ATOM     21  CD2 PHE A   7      22.985  28.950   2.112  0.00  0.00    -0.004 A 
ATOM     22  CE2 PHE A   7      22.317  27.740   2.231  0.00  0.00    -0.000 A 
ATOM     23  CZ  PHE A   7      20.934  27.714   2.222  0.00  0.00    -0.000 A 
ATOM     24  CE1 PHE A   7      20.221  28.892   2.098  0.00  0.00    -0.000 A 
ATOM     25  CD1 PHE A   7      20.894  30.096   1.968  0.00  0.00    -0.004 A 
ENDBRANCH  19  20
ENDBRANCH  16  19
ENDBRANCH  14  16
ENDBRANCH  11  12
ENDBRANCH   8  11
ENDBRANCH   6   7
ENDBRANCH   3   6
ENDBRANCH   1   2
BRANCH   1  27
ATOM     26  C   GLY A   3      18.988  31.240   8.456  0.00  0.00    +0.243 C 
ATOM     27  N   ILE A   4      18.483  31.954   9.455  0.00  0.00    -0.297 N 
ATOM     28  H   ILE A   4      19.076  32.169  10.282  0.00  0.00    +0.150 HD
ATOM     29  O   GLY A   3      18.390  31.048   7.380  0.00  0.00    -0.273 OA
BRANCH  26  30
ATOM     30  CA  GLY A   3      20.370  30.674   8.687  0.00  0.00    +0.176 C 
BRANCH  30  33
ATOM     31  C   GLY A   2      21.588  29.248   7.118  0.00  0.00    +0.243 C 
ATOM     32  O   GLY A   2      21.742  28.357   7.944  0.00  0.00    -0.273 OA
ATOM     33  N   GLY A   3      20.986  30.398   7.394  0.00  0.00    -0.295 N 
ATOM     34  H   GLY A   3      20.952  31.132   6.658  0.00  0.00    +0.150 HD
BRANCH  31  35
ATOM     35  CA  GLY A   2      22.096  29.095   5.701  0.00  0.00    +0.176 C 
BRANCH  35  37
ATOM     36  C   ILE A   1      24.484  28.933   5.191  0.00  0.00    +0.238 C 
ATOM     37  N   GLY A   2      23.360  28.362   5.615  0.00  0.00    -0.296 N 
ATOM     38  H   GLY A   2      23.380  27.361   5.895  0.00  0.00    +0.150 HD
ATOM     39  O   ILE A   1      24.588  30.137   4.913  0.00  0.00    -0.274 OA
BRANCH  36  40
ATOM     40  CA  ILE A   1      25.681  28.006   5.084  0.00  0.00    +0.145 C 
BRANCH  40  41
ATOM     41  N   ILE A   1      26.644  28.532   4.122  0.00  0.00    -0.238 NA
ATOM     42  H   ILE A   1      26.892  29.542   4.156  0.00  0.00    +0.142 HD
ENDBRANCH  40  41
BRANCH  40  43
ATOM     43  CB  ILE A   1      26.297  27.792   6.482  0.00  0.00    +0.025 C 
ATOM     44  CG2 ILE A   1      27.454  26.799   6.399  0.00  0.00    +0.002 C 
BRANCH  43  45
ATOM     45  CG1 ILE A   1      26.772  29.114   7.103  0.00  0.00    +0.002 C 
ATOM     46  CD1 ILE A   1      27.205  28.973   8.549  0.00  0.00    +0.000 C 
ENDBRANCH  43  45
ENDBRANCH  40  43
ENDBRANCH  36  40
ENDBRANCH  35  37
ENDBRANCH  31  35
ENDBRANCH  30  33
ENDBRANCH  26  30
ENDBRANCH   1  27
BRANCH   1  47
ATOM     47  CB  ILE A   4      16.665  32.976  10.806  0.00  0.00    +0.027 C 
ATOM     48  CG2 ILE A   4      17.110  34.421  11.008  0.00  0.00    +0.002 C 
BRANCH  47  49
ATOM     49  CG1 ILE A   4      15.153  32.795  10.963  0.00  0.00    +0.002 C 
ATOM     50  CD1 ILE A   4      14.613  33.170  12.320  0.00  0.00    +0.000 C 
ENDBRANCH  47  49
ENDBRANCH   1  47
TORSDOF 20
REMARK  Name = ../refined-set-2016/2qi7/2qi7_pocket.pdb
REMARK  201 active torsions:
REMARK  status: ('A' for Active; 'I' for Inactive)
REMARK    1  A    between atoms: _1  and  _3
REMARK    2  A    between atoms: _3  and  _4
REMARK    3  A    between atoms: _3  and  _6
REMARK    4  A    between atoms: _6  and  _7
REMARK    5  A    between atoms: _7  and  _8
REMARK    6  A    between atoms: _8  and  _9
REMARK    7  A    between atoms: _18  and  _20
REMARK    8  A    between atoms: _20  and  _21
REMARK    9  A    between atoms: _20  and  _23
REMARK   10  A    between atoms: _23  and  _24
REMARK   11  A    between atoms: _27  and  _29
REMARK   12  A    between atoms: _29  and  _30
REMARK   13  A    between atoms: _29  and  _32
REMARK   14  A    between atoms: _32  and  _33
REMARK   15  A    between atoms: _36  and  _38
REMARK   16  A    between atoms: _38  and  _39
REMARK   17  A    between atoms: _38  and  _41
REMARK   18  A    between atoms: _41  and  _42
REMARK   19  A    between atoms: _45  and  _47
REMARK   20  A    between atoms: _47  and  _48
REMARK   21  A    between atoms: _47  and  _50
REMARK   22  A    between atoms: _50  and  _51
REMARK   23  A    between atoms: _54  and  _56
REMARK   24  A    between atoms: _56  and  _57
REMARK   25  A    between atoms: _59  and  _61
REMARK   26  A    between atoms: _61  and  _62
REMARK   27  A    between atoms: _65  and  _67
REMARK   28  A    between atoms: _67  and  _68
REMARK   29  A    between atoms: _67  and  _70
REMARK   30  A    between atoms: _70  and  _71
REMARK   31  A    between atoms: _74  and  _76
REMARK   32  A    between atoms: _76  and  _77
REMARK   33  A    between atoms: _76  and  _79
REMARK   34  A    between atoms: _79  and  _80
REMARK   35  A    between atoms: _83  and  _85
REMARK   36  A    between atoms: _85  and  _86
REMARK   37  A    between atoms: _85  and  _88
REMARK   38  A    between atoms: _88  and  _89
REMARK   39  A    between atoms: _92  and  _94
REMARK   40  A    between atoms: _94  and  _95
REMARK   41  A    between atoms: _94  and  _97
REMARK   42  A    between atoms: _100  and  _102
REMARK   43  A    between atoms: _102  and  _103
REMARK   44  A    between atoms: _102  and  _105
REMARK   45  A    between atoms: _105  and  _106
REMARK   46  A    between atoms: _109  and  _111
REMARK   47  A    between atoms: _111  and  _112
REMARK   48  A    between atoms: _114  and  _116
REMARK   49  A    between atoms: _116  and  _117
REMARK   50  A    between atoms: _119  and  _121
REMARK   51  A    between atoms: _121  and  _122
REMARK   52  A    between atoms: _121  and  _124
REMARK   53  A    between atoms: _124  and  _125
REMARK   54  A    between atoms: _128  and  _130
REMARK   55  A    between atoms: _130  and  _131
REMARK   56  A    between atoms: _133  and  _135
REMARK   57  A    between atoms: _135  and  _136
REMARK   58  A    between atoms: _138  and  _140
REMARK   59  A    between atoms: _140  and  _141
REMARK   60  A    between atoms: _140  and  _143
REMARK   61  A    between atoms: _143  and  _144
REMARK   62  A    between atoms: _150  and  _152
REMARK   63  A    between atoms: _152  and  _153
REMARK   64  A    between atoms: _152  and  _155
REMARK   65  A    between atoms: _155  and  _156
REMARK   66  A    between atoms: _160  and  _161
REMARK   67  A    between atoms: _166  and  _168
REMARK   68  A    between atoms: _168  and  _169
REMARK   69  A    between atoms: _168  and  _171
REMARK   70  A    between atoms: _174  and  _176
REMARK   71  A    between atoms: _176  and  _177
REMARK   72  A    between atoms: _176  and  _179
REMARK   73  A    between atoms: _179  and  _180
REMARK   74  A    between atoms: _185  and  _187
REMARK   75  A    between atoms: _187  and  _188
REMARK   76  A    between atoms: _187  and  _190
REMARK   77  A    between atoms: _190  and  _191
REMARK   78  A    between atoms: _194  and  _196
REMARK   79  A    between atoms: _196  and  _197
REMARK   80  A    between atoms: _196  and  _199
REMARK   81  A    between atoms: _199  and  _200
REMARK   82  A    between atoms: _203  and  _205
REMARK   83  A    between atoms: _205  and  _206
REMARK   84  A    between atoms: _208  and  _210
REMARK   85  A    between atoms: _210  and  _211
REMARK   86  A    between atoms: _210  and  _213
REMARK   87  A    between atoms: _213  and  _214
REMARK   88  A    between atoms: _214  and  _215
REMARK   89  A    between atoms: _215  and  _216
REMARK   90  A    between atoms: _225  and  _227
REMARK   91  A    between atoms: _227  and  _228
REMARK   92  A    between atoms: _227  and  _230
REMARK   93  A    between atoms: _230  and  _231
REMARK   94  A    between atoms: _231  and  _232
REMARK   95  A    between atoms: _232  and  _233
REMARK   96  A    between atoms: _242  and  _244
REMARK   97  A    between atoms: _244  and  _245
REMARK   98  A    between atoms: _244  and  _247
REMARK   99  A    between atoms: _247  and  _248
REMARK  100  A    between atoms: _251  and  _253
REMARK  101  A    between atoms: _253  and  _254
REMARK  102  A    between atoms: _253  and  _256
REMARK  103  A    between atoms: _256  and  _257
REMARK  104  A    between atoms: _260  and  _262
REMARK  105  A    between atoms: _262  and  _263
REMARK  106  A    between atoms: _262  and  _265
REMARK  107  A    between atoms: _265  and  _266
REMARK  108  A    between atoms: _269  and  _271
REMARK  109  A    between atoms: _271  and  _272
REMARK  110  A    between atoms: _271  and  _274
REMARK  111  A    between atoms: _274  and  _275
REMARK  112  A    between atoms: _278  and  _280
REMARK  113  A    between atoms: _280  and  _281
REMARK  114  A    between atoms: _283  and  _285
REMARK  115  A    between atoms: _285  and  _286
REMARK  116  A    between atoms: _289  and  _291
REMARK  117  A    between atoms: _291  and  _292
REMARK  118  A    between atoms: _291  and  _294
REMARK  119  A    between atoms: _294  and  _295
REMARK  120  A    between atoms: _298  and  _300
REMARK  121  A    between atoms: _300  and  _301
REMARK  122  A    between atoms: _300  and  _303
REMARK  123  A    between atoms: _303  and  _304
REMARK  124  A    between atoms: _307  and  _309
REMARK  125  A    between atoms: _309  and  _310
REMARK  126  A    between atoms: _309  and  _312
REMARK  127  A    between atoms: _312  and  _313
REMARK  128  A    between atoms: _316  and  _318
REMARK  129  A    between atoms: _318  and  _319
REMARK  130  A    between atoms: _318  and  _321
REMARK  131  A    between atoms: _324  and  _326
REMARK  132  A    between atoms: _326  and  _327
REMARK  133  A    between atoms: _326  and  _329
REMARK  134  A    between atoms: _329  and  _330
REMARK  135  A    between atoms: _330  and  _331
REMARK  136  A    between atoms: _331  and  _332
REMARK  137  A    between atoms: _332  and  _333
REMARK  138  A    between atoms: _337  and  _339
REMARK  139  A    between atoms: _339  and  _340
REMARK  140  A    between atoms: _339  and  _342
REMARK  141  A    between atoms: _342  and  _343
REMARK  142  A    between atoms: _343  and  _344
REMARK  143  A    between atoms: _346  and  _348
REMARK  144  A    between atoms: _348  and  _349
REMARK  145  A    between atoms: _348  and  _351
REMARK  146  A    between atoms: _351  and  _352
REMARK  147  A    between atoms: _355  and  _357
REMARK  148  A    between atoms: _357  and  _358
REMARK  149  A    between atoms: _360  and  _362
REMARK  150  A    between atoms: _362  and  _363
REMARK  151  A    between atoms: _365  and  _367
REMARK  152  A    between atoms: _367  and  _368
REMARK  153  A    between atoms: _367  and  _370
REMARK  154  A    between atoms: _370  and  _371
REMARK  155  A    between atoms: _374  and  _376
REMARK  156  A    between atoms: _376  and  _377
REMARK  157  A    between atoms: _379  and  _381
REMARK  158  A    between atoms: _381  and  _382
REMARK  159  A    between atoms: _384  and  _386
REMARK  160  A    between atoms: _386  and  _387
REMARK  161  A    between atoms: _386  and  _389
REMARK  162  A    between atoms: _389  and  _390
REMARK  163  A    between atoms: _393  and  _395
REMARK  164  A    between atoms: _395  and  _396
REMARK  165  A    between atoms: _395  and  _398
REMARK  166  A    between atoms: _401  and  _403
REMARK  167  A    between atoms: _403  and  _404
REMARK  168  A    between atoms: _403  and  _406
REMARK  169  A    between atoms: _406  and  _407
REMARK  170  A    between atoms: _410  and  _412
REMARK  171  A    between atoms: _412  and  _413
REMARK  172  A    between atoms: _412  and  _415
REMARK  173  A    between atoms: _415  and  _416
REMARK  174  A    between atoms: _420  and  _421
REMARK  175  A    between atoms: _426  and  _428
REMARK  176  A    between atoms: _428  and  _429
REMARK  177  A    between atoms: _428  and  _431
REMARK  178  A    between atoms: _434  and  _436
REMARK  179  A    between atoms: _436  and  _437
REMARK  180  A    between atoms: _436  and  _439
REMARK  181  A    between atoms: _439  and  _440
REMARK  182  A    between atoms: _445  and  _447
REMARK  183  A    between atoms: _447  and  _448
REMARK  184  A    between atoms: _447  and  _450
REMARK  185  A    between atoms: _450  and  _451
REMARK  186  A    between atoms: _454  and  _456
REMARK  187  A    between atoms: _456  and  _457
REMARK  188  A    between atoms: _456  and  _459
REMARK  189  A    between atoms: _459  and  _460
REMARK  190  A    between atoms: _463  and  _465
REMARK  191  A    between atoms: _465  and  _466
REMARK  192  A    between atoms: _468  and  _470
REMARK  193  A    between atoms: _470  and  _471
REMARK  194  A    between atoms: _470  and  _473
REMARK  195  A    between atoms: _473  and  _474
REMARK  196  A    between atoms: _474  and  _475
REMARK  197  A    between atoms: _475  and  _476
REMARK  198  A    between atoms: _485  and  _487
REMARK  199  A    between atoms: _487  and  _488
REMARK  200  A    between atoms: _487  and  _490
REMARK  201  A    between atoms: _490  and  _491
REMARK                            x       y       z     vdW  Elec       q    Type
REMARK                         _______ _______ _______ _____ _____    ______ ____
ROOT
ATOM      1  CA  ILE A   5      27.964  30.122  18.217  0.00  0.00    +0.149 C 
ENDROOT
BRANCH   1   4
ATOM      2  C   ASN A   4      29.016  32.292  18.529  0.00  0.00    +0.241 C 
ATOM      3  O   ASN A   4      28.395  32.506  19.584  0.00  0.00    -0.273 OA
ATOM      4  N   ILE A   5      28.854  31.191  17.798  0.00  0.00    -0.297 N 
ATOM      5  H   ILE A   5      29.378  31.094  16.905  0.00  0.00    +0.150 HD
BRANCH   2   6
ATOM      6  CA  ASN A   4      30.004  33.326  18.000  0.00  0.00    +0.158 C 
BRANCH   6   8
ATOM      7  C   VAL A   3      28.264  34.815  17.148  0.00  0.00    +0.241 C 
ATOM      8  N   ASN A   4      29.339  34.636  17.906  0.00  0.00    -0.297 N 
ATOM      9  H   ASN A   4      29.720  35.439  18.446  0.00  0.00    +0.150 HD
ATOM     10  O   VAL A   3      27.864  33.976  16.337  0.00  0.00    -0.273 OA
BRANCH   7  11
ATOM     11  CA  VAL A   3      27.525  36.134  17.305  0.00  0.00    +0.149 C 
BRANCH  11  14
ATOM     12  C   PRO A   2      26.585  37.655  15.627  0.00  0.00    +0.241 C 
ATOM     13  O   PRO A   2      26.850  38.656  16.285  0.00  0.00    -0.273 OA
ATOM     14  N   VAL A   3      26.845  36.421  16.044  0.00  0.00    -0.297 N 
ATOM     15  H   VAL A   3      26.551  35.623  15.446  0.00  0.00    +0.150 HD
BRANCH  12  18
ATOM     16  C   THR A   1      27.384  36.451  12.893  0.00  0.00    +0.244 C 
ATOM     17  N   PRO A   2      26.134  36.694  13.310  0.00  0.00    -0.272 N 
ATOM     18  CA  PRO A   2      25.897  37.795  14.268  0.00  0.00    +0.152 C 
ATOM     19  CB  PRO A   2      24.369  37.809  14.445  0.00  0.00    +0.031 C 
ATOM     20  CG  PRO A   2      23.881  36.507  13.895  0.00  0.00    +0.024 C 
ATOM     21  CD  PRO A   2      24.887  36.003  12.920  0.00  0.00    +0.094 C 
ATOM     22  O   THR A   1      28.341  37.153  13.236  0.00  0.00    -0.273 OA
BRANCH  16  23
ATOM     23  CA  THR A   1      27.600  35.254  11.969  0.00  0.00    +0.172 C 
BRANCH  23  24
ATOM     24  CB  THR A   1      27.985  34.001  12.802  0.00  0.00    +0.135 C 
ATOM     25  CG2 THR A   1      29.361  34.133  13.428  0.00  0.00    +0.034 C 
BRANCH  24  26
ATOM     26  OG1 THR A   1      27.016  33.792  13.832  0.00  0.00    -0.383 OA
ATOM     27  HG1 THR A   1      26.989  34.585  14.424  0.00  0.00    +0.210 HD
ENDBRANCH  24  26
ENDBRANCH  23  24
BRANCH  23  28
ATOM     28  N   THR A   1      28.627  35.606  11.010  0.00  0.00    -0.236 NA
ATOM     29  H   THR A   1      29.579  35.202  11.123  0.00  0.00    +0.142 HD
ENDBRANCH  23  28
ENDBRANCH  16  23
ENDBRANCH  12  18
ENDBRANCH  11  14
BRANCH  11  30
ATOM     30  CB  VAL A   3      26.518  36.040  18.480  0.00  0.00    +0.027 C 
ATOM     31  CG2 VAL A   3      27.222  35.933  19.827  0.00  0.00    +0.002 C 
ATOM     32  CG1 VAL A   3      25.572  34.877  18.300  0.00  0.00    +0.002 C 
ENDBRANCH  11  30
ENDBRANCH   7  11
ENDBRANCH   6   8
BRANCH   6  33
ATOM     33  CB  ASN A   4      31.181  33.360  18.976  0.00  0.00    +0.114 C 
BRANCH  33  34
ATOM     34  CG  ASN A   4      32.285  34.316  18.561  0.00  0.00    +0.222 C 
ATOM     35  ND2 ASN A   4      32.920  34.929  19.554  0.00  0.00    -0.329 N 
ATOM     36 HD21 ASN A   4      32.647  34.742  20.540  0.00  0.00    +0.145 HD
ATOM     37 HD22 ASN A   4      33.690  35.596  19.345  0.00  0.00    +0.145 HD
ATOM     38  OD1 ASN A   4      32.570  34.503  17.372  0.00  0.00    -0.275 OA
ENDBRANCH  33  34
ENDBRANCH   6  33
ENDBRANCH   2   6
ENDBRANCH   1   4
BRANCH   1  39
ATOM     39  C   ILE A   5      28.662  28.773  18.201  0.00  0.00    +0.241 C 
ATOM     40  N   ILE A   6      28.436  28.001  19.258  0.00  0.00    -0.297 N 
ATOM     41  H   ILE A   6      27.911  28.390  20.067  0.00  0.00    +0.150 HD
ATOM     42  O   ILE A   5      29.392  28.442  17.275  0.00  0.00    -0.273 OA
BRANCH  40  43
ATOM     43  CA  ILE A   6      28.899  26.640  19.313  0.00  0.00    +0.149 C 
BRANCH  43  44
ATOM     44  C   ILE A   6      27.727  25.750  18.931  0.00  0.00    +0.241 C 
ATOM     45  O   ILE A   6      26.709  25.702  19.648  0.00  0.00    -0.273 OA
ATOM     46  N   GLY A   7      27.877  25.041  17.815  0.00  0.00    -0.295 N 
ATOM     47  H   GLY A   7      28.777  25.103  17.297  0.00  0.00    +0.150 HD
BRANCH  46  48
ATOM     48  CA  GLY A   7      26.820  24.179  17.293  0.00  0.00    +0.176 C 
BRANCH  48  49
ATOM     49  C   GLY A   7      26.964  22.734  17.707  0.00  0.00    +0.243 C 
ATOM     50  O   GLY A   7      27.912  22.367  18.411  0.00  0.00    -0.273 OA
ATOM     51  N   ARG A   8      26.030  21.908  17.234  0.00  0.00    -0.298 N 
ATOM     52  H   ARG A   8      25.337  22.270  16.549  0.00  0.00    +0.150 HD
BRANCH  51  53
ATOM     53  CA  ARG A   8      25.951  20.513  17.648  0.00  0.00    +0.137 C 
BRANCH  53  54
ATOM     54  C   ARG A   8      27.224  19.720  17.350  0.00  0.00    +0.227 C 
ATOM     55  O   ARG A   8      27.548  18.806  18.089  0.00  0.00    -0.286 OA
ENDBRANCH  53  54
BRANCH  53  56
ATOM     56  CB  ARG A   8      24.737  19.807  17.026  0.00  0.00    +0.031 C 
BRANCH  56  57
ATOM     57  CG  ARG A   8      23.410  20.347  17.550  0.00  0.00    +0.045 C 
BRANCH  57  58
ATOM     58  CD  ARG A   8      22.193  19.557  17.061  0.00  0.00    +0.174 C 
BRANCH  58  59
ATOM     59  NE  ARG A   8      22.104  19.563  15.597  0.00  0.00    -0.265 N 
ATOM     60  HE  ARG A   8      21.646  20.385  15.154  0.00  0.00    +0.259 HD
ATOM     61  CZ  ARG A   8      22.558  18.609  14.784  0.00  0.00    +0.342 C 
ATOM     62  NH2 ARG A   8      23.137  17.506  15.248  0.00  0.00    -0.292 N 
ATOM     63 HH21 ARG A   8      23.247  17.368  16.273  0.00  0.00    +0.255 HD
ATOM     64 HH22 ARG A   8      23.480  16.781  14.586  0.00  0.00    +0.255 HD
ATOM     65  NH1 ARG A   8      22.433  18.771  13.480  0.00  0.00    -0.292 N 
ATOM     66 HH11 ARG A   8      21.987  19.632  13.103  0.00  0.00    +0.255 HD
ATOM     67 HH12 ARG A   8      22.781  18.038  12.829  0.00  0.00    +0.255 HD
ENDBRANCH  58  59
ENDBRANCH  57  58
ENDBRANCH  56  57
ENDBRANCH  53  56
ENDBRANCH  51  53
ENDBRANCH  48  49
ENDBRANCH  46  48
ENDBRANCH  43  44
BRANCH  43  68
ATOM     68  CB  ILE A   6      29.365  26.243  20.731  0.00  0.00    +0.027 C 
ATOM     69  CG2 ILE A   6      29.886  24.806  20.703  0.00  0.00    +0.002 C 
BRANCH  68  70
ATOM     70  CG1 ILE A   6      30.409  27.222  21.278  0.00  0.00    +0.002 C 
ATOM     71  CD1 ILE A   6      31.653  27.400  20.424  0.00  0.00    +0.000 C 
ENDBRANCH  68  70
ENDBRANCH  43  68
ENDBRANCH  40  43
ENDBRANCH   1  39
BRANCH   1  72
ATOM     72  CB  ILE A   5      26.663  30.052  17.370  0.00  0.00    +0.027 C 
ATOM     73  CG2 ILE A   5      25.890  31.357  17.487  0.00  0.00    +0.002 C 
BRANCH  72  74
ATOM     74  CG1 ILE A   5      26.950  29.678  15.907  0.00  0.00    +0.002 C 
ATOM     75  CD1 ILE A   5      25.709  29.717  15.005  0.00  0.00    +0.000 C 
ENDBRANCH  72  74
ENDBRANCH   1  72
TORSDOF 28
REMARK  Name = ../refined-set-2016/2qi7/2qi7_pocket.pdb
REMARK  201 active torsions:
REMARK  status: ('A' for Active; 'I' for Inactive)
REMARK    1  A    between atoms: _1  and  _3
REMARK    2  A    between atoms: _3  and  _4
REMARK    3  A    between atoms: _3  and  _6
REMARK    4  A    between atoms: _6  and  _7
REMARK    5  A    between atoms: _7  and  _8
REMARK    6  A    between atoms: _8  and  _9
REMARK    7  A    between atoms: _18  and  _20
REMARK    8  A    between atoms: _20  and  _21
REMARK    9  A    between atoms: _20  and  _23
REMARK   10  A    between atoms: _23  and  _24
REMARK   11  A    between atoms: _27  and  _29
REMARK   12  A    between atoms: _29  and  _30
REMARK   13  A    between atoms: _29  and  _32
REMARK   14  A    between atoms: _32  and  _33
REMARK   15  A    between atoms: _36  and  _38
REMARK   16  A    between atoms: _38  and  _39
REMARK   17  A    between atoms: _38  and  _41
REMARK   18  A    between atoms: _41  and  _42
REMARK   19  A    between atoms: _45  and  _47
REMARK   20  A    between atoms: _47  and  _48
REMARK   21  A    between atoms: _47  and  _50
REMARK   22  A    between atoms: _50  and  _51
REMARK   23  A    between atoms: _54  and  _56
REMARK   24  A    between atoms: _56  and  _57
REMARK   25  A    between atoms: _59  and  _61
REMARK   26  A    between atoms: _61  and  _62
REMARK   27  A    between atoms: _65  and  _67
REMARK   28  A    between atoms: _67  and  _68
REMARK   29  A    between atoms: _67  and  _70
REMARK   30  A    between atoms: _70  and  _71
REMARK   31  A    between atoms: _74  and  _76
REMARK   32  A    between atoms: _76  and  _77
REMARK   33  A    between atoms: _76  and  _79
REMARK   34  A    between atoms: _79  and  _80
REMARK   35  A    between atoms: _83  and  _85
REMARK   36  A    between atoms: _85  and  _86
REMARK   37  A    between atoms: _85  and  _88
REMARK   38  A    between atoms: _88  and  _89
REMARK   39  A    between atoms: _92  and  _94
REMARK   40  A    between atoms: _94  and  _95
REMARK   41  A    between atoms: _94  and  _97
REMARK   42  A    between atoms: _100  and  _102
REMARK   43  A    between atoms: _102  and  _103
REMARK   44  A    between atoms: _102  and  _105
REMARK   45  A    between atoms: _105  and  _106
REMARK   46  A    between atoms: _109  and  _111
REMARK   47  A    between atoms: _111  and  _112
REMARK   48  A    between atoms: _114  and  _116
REMARK   49  A    between atoms: _116  and  _117
REMARK   50  A    between atoms: _119  and  _121
REMARK   51  A    between atoms: _121  and  _122
REMARK   52  A    between atoms: _121  and  _124
REMARK   53  A    between atoms: _124  and  _125
REMARK   54  A    between atoms: _128  and  _130
REMARK   55  A    between atoms: _130  and  _131
REMARK   56  A    between atoms: _133  and  _135
REMARK   57  A    between atoms: _135  and  _136
REMARK   58  A    between atoms: _138  and  _140
REMARK   59  A    between atoms: _140  and  _141
REMARK   60  A    between atoms: _140  and  _143
REMARK   61  A    between atoms: _143  and  _144
REMARK   62  A    between atoms: _150  and  _152
REMARK   63  A    between atoms: _152  and  _153
REMARK   64  A    between atoms: _152  and  _155
REMARK   65  A    between atoms: _155  and  _156
REMARK   66  A    between atoms: _160  and  _161
REMARK   67  A    between atoms: _166  and  _168
REMARK   68  A    between atoms: _168  and  _169
REMARK   69  A    between atoms: _168  and  _171
REMARK   70  A    between atoms: _174  and  _176
REMARK   71  A    between atoms: _176  and  _177
REMARK   72  A    between atoms: _176  and  _179
REMARK   73  A    between atoms: _179  and  _180
REMARK   74  A    between atoms: _185  and  _187
REMARK   75  A    between atoms: _187  and  _188
REMARK   76  A    between atoms: _187  and  _190
REMARK   77  A    between atoms: _190  and  _191
REMARK   78  A    between atoms: _194  and  _196
REMARK   79  A    between atoms: _196  and  _197
REMARK   80  A    between atoms: _196  and  _199
REMARK   81  A    between atoms: _199  and  _200
REMARK   82  A    between atoms: _203  and  _205
REMARK   83  A    between atoms: _205  and  _206
REMARK   84  A    between atoms: _208  and  _210
REMARK   85  A    between atoms: _210  and  _211
REMARK   86  A    between atoms: _210  and  _213
REMARK   87  A    between atoms: _213  and  _214
REMARK   88  A    between atoms: _214  and  _215
REMARK   89  A    between atoms: _215  and  _216
REMARK   90  A    between atoms: _225  and  _227
REMARK   91  A    between atoms: _227  and  _228
REMARK   92  A    between atoms: _227  and  _230
REMARK   93  A    between atoms: _230  and  _231
REMARK   94  A    between atoms: _231  and  _232
REMARK   95  A    between atoms: _232  and  _233
REMARK   96  A    between atoms: _242  and  _244
REMARK   97  A    between atoms: _244  and  _245
REMARK   98  A    between atoms: _244  and  _247
REMARK   99  A    between atoms: _247  and  _248
REMARK  100  A    between atoms: _251  and  _253
REMARK  101  A    between atoms: _253  and  _254
REMARK  102  A    between atoms: _253  and  _256
REMARK  103  A    between atoms: _256  and  _257
REMARK  104  A    between atoms: _260  and  _262
REMARK  105  A    between atoms: _262  and  _263
REMARK  106  A    between atoms: _262  and  _265
REMARK  107  A    between atoms: _265  and  _266
REMARK  108  A    between atoms: _269  and  _271
REMARK  109  A    between atoms: _271  and  _272
REMARK  110  A    between atoms: _271  and  _274
REMARK  111  A    between atoms: _274  and  _275
REMARK  112  A    between atoms: _278  and  _280
REMARK  113  A    between atoms: _280  and  _281
REMARK  114  A    between atoms: _283  and  _285
REMARK  115  A    between atoms: _285  and  _286
REMARK  116  A    between atoms: _289  and  _291
REMARK  117  A    between atoms: _291  and  _292
REMARK  118  A    between atoms: _291  and  _294
REMARK  119  A    between atoms: _294  and  _295
REMARK  120  A    between atoms: _298  and  _300
REMARK  121  A    between atoms: _300  and  _301
REMARK  122  A    between atoms: _300  and  _303
REMARK  123  A    between atoms: _303  and  _304
REMARK  124  A    between atoms: _307  and  _309
REMARK  125  A    between atoms: _309  and  _310
REMARK  126  A    between atoms: _309  and  _312
REMARK  127  A    between atoms: _312  and  _313
REMARK  128  A    between atoms: _316  and  _318
REMARK  129  A    between atoms: _318  and  _319
REMARK  130  A    between atoms: _318  and  _321
REMARK  131  A    between atoms: _324  and  _326
REMARK  132  A    between atoms: _326  and  _327
REMARK  133  A    between atoms: _326  and  _329
REMARK  134  A    between atoms: _329  and  _330
REMARK  135  A    between atoms: _330  and  _331
REMARK  136  A    between atoms: _331  and  _332
REMARK  137  A    between atoms: _332  and  _333
REMARK  138  A    between atoms: _337  and  _339
REMARK  139  A    between atoms: _339  and  _340
REMARK  140  A    between atoms: _339  and  _342
REMARK  141  A    between atoms: _342  and  _343
REMARK  142  A    between atoms: _343  and  _344
REMARK  143  A    between atoms: _346  and  _348
REMARK  144  A    between atoms: _348  and  _349
REMARK  145  A    between atoms: _348  and  _351
REMARK  146  A    between atoms: _351  and  _352
REMARK  147  A    between atoms: _355  and  _357
REMARK  148  A    between atoms: _357  and  _358
REMARK  149  A    between atoms: _360  and  _362
REMARK  150  A    between atoms: _362  and  _363
REMARK  151  A    between atoms: _365  and  _367
REMARK  152  A    between atoms: _367  and  _368
REMARK  153  A    between atoms: _367  and  _370
REMARK  154  A    between atoms: _370  and  _371
REMARK  155  A    between atoms: _374  and  _376
REMARK  156  A    between atoms: _376  and  _377
REMARK  157  A    between atoms: _379  and  _381
REMARK  158  A    between atoms: _381  and  _382
REMARK  159  A    between atoms: _384  and  _386
REMARK  160  A    between atoms: _386  and  _387
REMARK  161  A    between atoms: _386  and  _389
REMARK  162  A    between atoms: _389  and  _390
REMARK  163  A    between atoms: _393  and  _395
REMARK  164  A    between atoms: _395  and  _396
REMARK  165  A    between atoms: _395  and  _398
REMARK  166  A    between atoms: _401  and  _403
REMARK  167  A    between atoms: _403  and  _404
REMARK  168  A    between atoms: _403  and  _406
REMARK  169  A    between atoms: _406  and  _407
REMARK  170  A    between atoms: _410  and  _412
REMARK  171  A    between atoms: _412  and  _413
REMARK  172  A    between atoms: _412  and  _415
REMARK  173  A    between atoms: _415  and  _416
REMARK  174  A    between atoms: _420  and  _421
REMARK  175  A    between atoms: _426  and  _428
REMARK  176  A    between atoms: _428  and  _429
REMARK  177  A    between atoms: _428  and  _431
REMARK  178  A    between atoms: _434  and  _436
REMARK  179  A    between atoms: _436  and  _437
REMARK  180  A    between atoms: _436  and  _439
REMARK  181  A    between atoms: _439  and  _440
REMARK  182  A    between atoms: _445  and  _447
REMARK  183  A    between atoms: _447  and  _448
REMARK  184  A    between atoms: _447  and  _450
REMARK  185  A    between atoms: _450  and  _451
REMARK  186  A    between atoms: _454  and  _456
REMARK  187  A    between atoms: _456  and  _457
REMARK  188  A    between atoms: _456  and  _459
REMARK  189  A    between atoms: _459  and  _460
REMARK  190  A    between atoms: _463  and  _465
REMARK  191  A    between atoms: _465  and  _466
REMARK  192  A    between atoms: _468  and  _470
REMARK  193  A    between atoms: _470  and  _471
REMARK  194  A    between atoms: _470  and  _473
REMARK  195  A    between atoms: _473  and  _474
REMARK  196  A    between atoms: _474  and  _475
REMARK  197  A    between atoms: _475  and  _476
REMARK  198  A    between atoms: _485  and  _487
REMARK  199  A    between atoms: _487  and  _488
REMARK  200  A    between atoms: _487  and  _490
REMARK  201  A    between atoms: _490  and  _491
REMARK                            x       y       z     vdW  Elec       q    Type
REMARK                         _______ _______ _______ _____ _____    ______ ____
ROOT
ATOM      1  NE  ARG A   1      19.215  20.251  10.990  0.00  0.00    -0.265 N 
ATOM      2  HE  ARG A   1      19.999  20.794  11.406  0.00  0.00    +0.259 HD
ATOM      3  CZ  ARG A   1      19.172  20.156   9.661  0.00  0.00    +0.342 C 
ATOM      4  NH2 ARG A   1      18.204  19.491   9.044  0.00  0.00    -0.292 N 
ATOM      5 HH21 ARG A   1      17.455  19.029   9.599  0.00  0.00    +0.255 HD
ATOM      6 HH22 ARG A   1      18.194  19.432   8.006  0.00  0.00    +0.255 HD
ATOM      7  NH1 ARG A   1      20.107  20.740   8.933  0.00  0.00    -0.292 N 
ATOM      8 HH11 ARG A   1      20.872  21.271   9.397  0.00  0.00    +0.255 HD
ATOM      9 HH12 ARG A   1      20.078  20.669   7.896  0.00  0.00    +0.255 HD
ENDROOT
BRANCH   1  10
ATOM     10  CD  ARG A   1      18.247  19.652  11.911  0.00  0.00    +0.174 C 
BRANCH  10  11
ATOM     11  CG  ARG A   1      18.911  19.323  13.230  0.00  0.00    +0.045 C 
BRANCH  11  12
ATOM     12  CB  ARG A   1      17.943  18.767  14.236  0.00  0.00    +0.029 C 
BRANCH  12  13
ATOM     13  CA  ARG A   1      18.627  18.136  15.445  0.00  0.00    +0.133 C 
BRANCH  13  14
ATOM     14  N   ARG A   1      19.346  16.931  15.071  0.00  0.00    -0.239 NA
ATOM     15  H   ARG A   1      19.326  16.608  14.083  0.00  0.00    +0.142 HD
ENDBRANCH  13  14
BRANCH  13  16
ATOM     16  C   ARG A   1      17.590  17.802  16.514  0.00  0.00    +0.224 C 
ATOM     17  O   ARG A   1      16.881  16.790  16.398  0.00  0.00    -0.287 OA
ENDBRANCH  13  16
ENDBRANCH  12  13
ENDBRANCH  11  12
ENDBRANCH  10  11
ENDBRANCH   1  10
TORSDOF 6
REMARK  Name = ../refined-set-2016/2qi7/2qi7_pocket.pdb
REMARK  201 active torsions:
REMARK  status: ('A' for Active; 'I' for Inactive)
REMARK    1  A    between atoms: _1  and  _3
REMARK    2  A    between atoms: _3  and  _4
REMARK    3  A    between atoms: _3  and  _6
REMARK    4  A    between atoms: _6  and  _7
REMARK    5  A    between atoms: _7  and  _8
REMARK    6  A    between atoms: _8  and  _9
REMARK    7  A    between atoms: _18  and  _20
REMARK    8  A    between atoms: _20  and  _21
REMARK    9  A    between atoms: _20  and  _23
REMARK   10  A    between atoms: _23  and  _24
REMARK   11  A    between atoms: _27  and  _29
REMARK   12  A    between atoms: _29  and  _30
REMARK   13  A    between atoms: _29  and  _32
REMARK   14  A    between atoms: _32  and  _33
REMARK   15  A    between atoms: _36  and  _38
REMARK   16  A    between atoms: _38  and  _39
REMARK   17  A    between atoms: _38  and  _41
REMARK   18  A    between atoms: _41  and  _42
REMARK   19  A    between atoms: _45  and  _47
REMARK   20  A    between atoms: _47  and  _48
REMARK   21  A    between atoms: _47  and  _50
REMARK   22  A    between atoms: _50  and  _51
REMARK   23  A    between atoms: _54  and  _56
REMARK   24  A    between atoms: _56  and  _57
REMARK   25  A    between atoms: _59  and  _61
REMARK   26  A    between atoms: _61  and  _62
REMARK   27  A    between atoms: _65  and  _67
REMARK   28  A    between atoms: _67  and  _68
REMARK   29  A    between atoms: _67  and  _70
REMARK   30  A    between atoms: _70  and  _71
REMARK   31  A    between atoms: _74  and  _76
REMARK   32  A    between atoms: _76  and  _77
REMARK   33  A    between atoms: _76  and  _79
REMARK   34  A    between atoms: _79  and  _80
REMARK   35  A    between atoms: _83  and  _85
REMARK   36  A    between atoms: _85  and  _86
REMARK   37  A    between atoms: _85  and  _88
REMARK   38  A    between atoms: _88  and  _89
REMARK   39  A    between atoms: _92  and  _94
REMARK   40  A    between atoms: _94  and  _95
REMARK   41  A    between atoms: _94  and  _97
REMARK   42  A    between atoms: _100  and  _102
REMARK   43  A    between atoms: _102  and  _103
REMARK   44  A    between atoms: _102  and  _105
REMARK   45  A    between atoms: _105  and  _106
REMARK   46  A    between atoms: _109  and  _111
REMARK   47  A    between atoms: _111  and  _112
REMARK   48  A    between atoms: _114  and  _116
REMARK   49  A    between atoms: _116  and  _117
REMARK   50  A    between atoms: _119  and  _121
REMARK   51  A    between atoms: _121  and  _122
REMARK   52  A    between atoms: _121  and  _124
REMARK   53  A    between atoms: _124  and  _125
REMARK   54  A    between atoms: _128  and  _130
REMARK   55  A    between atoms: _130  and  _131
REMARK   56  A    between atoms: _133  and  _135
REMARK   57  A    between atoms: _135  and  _136
REMARK   58  A    between atoms: _138  and  _140
REMARK   59  A    between atoms: _140  and  _141
REMARK   60  A    between atoms: _140  and  _143
REMARK   61  A    between atoms: _143  and  _144
REMARK   62  A    between atoms: _150  and  _152
REMARK   63  A    between atoms: _152  and  _153
REMARK   64  A    between atoms: _152  and  _155
REMARK   65  A    between atoms: _155  and  _156
REMARK   66  A    between atoms: _160  and  _161
REMARK   67  A    between atoms: _166  and  _168
REMARK   68  A    between atoms: _168  and  _169
REMARK   69  A    between atoms: _168  and  _171
REMARK   70  A    between atoms: _174  and  _176
REMARK   71  A    between atoms: _176  and  _177
REMARK   72  A    between atoms: _176  and  _179
REMARK   73  A    between atoms: _179  and  _180
REMARK   74  A    between atoms: _185  and  _187
REMARK   75  A    between atoms: _187  and  _188
REMARK   76  A    between atoms: _187  and  _190
REMARK   77  A    between atoms: _190  and  _191
REMARK   78  A    between atoms: _194  and  _196
REMARK   79  A    between atoms: _196  and  _197
REMARK   80  A    between atoms: _196  and  _199
REMARK   81  A    between atoms: _199  and  _200
REMARK   82  A    between atoms: _203  and  _205
REMARK   83  A    between atoms: _205  and  _206
REMARK   84  A    between atoms: _208  and  _210
REMARK   85  A    between atoms: _210  and  _211
REMARK   86  A    between atoms: _210  and  _213
REMARK   87  A    between atoms: _213  and  _214
REMARK   88  A    between atoms: _214  and  _215
REMARK   89  A    between atoms: _215  and  _216
REMARK   90  A    between atoms: _225  and  _227
REMARK   91  A    between atoms: _227  and  _228
REMARK   92  A    between atoms: _227  and  _230
REMARK   93  A    between atoms: _230  and  _231
REMARK   94  A    between atoms: _231  and  _232
REMARK   95  A    between atoms: _232  and  _233
REMARK   96  A    between atoms: _242  and  _244
REMARK   97  A    between atoms: _244  and  _245
REMARK   98  A    between atoms: _244  and  _247
REMARK   99  A    between atoms: _247  and  _248
REMARK  100  A    between atoms: _251  and  _253
REMARK  101  A    between atoms: _253  and  _254
REMARK  102  A    between atoms: _253  and  _256
REMARK  103  A    between atoms: _256  and  _257
REMARK  104  A    between atoms: _260  and  _262
REMARK  105  A    between atoms: _262  and  _263
REMARK  106  A    between atoms: _262  and  _265
REMARK  107  A    between atoms: _265  and  _266
REMARK  108  A    between atoms: _269  and  _271
REMARK  109  A    between atoms: _271  and  _272
REMARK  110  A    between atoms: _271  and  _274
REMARK  111  A    between atoms: _274  and  _275
REMARK  112  A    between atoms: _278  and  _280
REMARK  113  A    between atoms: _280  and  _281
REMARK  114  A    between atoms: _283  and  _285
REMARK  115  A    between atoms: _285  and  _286
REMARK  116  A    between atoms: _289  and  _291
REMARK  117  A    between atoms: _291  and  _292
REMARK  118  A    between atoms: _291  and  _294
REMARK  119  A    between atoms: _294  and  _295
REMARK  120  A    between atoms: _298  and  _300
REMARK  121  A    between atoms: _300  and  _301
REMARK  122  A    between atoms: _300  and  _303
REMARK  123  A    between atoms: _303  and  _304
REMARK  124  A    between atoms: _307  and  _309
REMARK  125  A    between atoms: _309  and  _310
REMARK  126  A    between atoms: _309  and  _312
REMARK  127  A    between atoms: _312  and  _313
REMARK  128  A    between atoms: _316  and  _318
REMARK  129  A    between atoms: _318  and  _319
REMARK  130  A    between atoms: _318  and  _321
REMARK  131  A    between atoms: _324  and  _326
REMARK  132  A    between atoms: _326  and  _327
REMARK  133  A    between atoms: _326  and  _329
REMARK  134  A    between atoms: _329  and  _330
REMARK  135  A    between atoms: _330  and  _331
REMARK  136  A    between atoms: _331  and  _332
REMARK  137  A    between atoms: _332  and  _333
REMARK  138  A    between atoms: _337  and  _339
REMARK  139  A    between atoms: _339  and  _340
REMARK  140  A    between atoms: _339  and  _342
REMARK  141  A    between atoms: _342  and  _343
REMARK  142  A    between atoms: _343  and  _344
REMARK  143  A    between atoms: _346  and  _348
REMARK  144  A    between atoms: _348  and  _349
REMARK  145  A    between atoms: _348  and  _351
REMARK  146  A    between atoms: _351  and  _352
REMARK  147  A    between atoms: _355  and  _357
REMARK  148  A    between atoms: _357  and  _358
REMARK  149  A    between atoms: _360  and  _362
REMARK  150  A    between atoms: _362  and  _363
REMARK  151  A    between atoms: _365  and  _367
REMARK  152  A    between atoms: _367  and  _368
REMARK  153  A    between atoms: _367  and  _370
REMARK  154  A    between atoms: _370  and  _371
REMARK  155  A    between atoms: _374  and  _376
REMARK  156  A    between atoms: _376  and  _377
REMARK  157  A    between atoms: _379  and  _381
REMARK  158  A    between atoms: _381  and  _382
REMARK  159  A    between atoms: _384  and  _386
REMARK  160  A    between atoms: _386  and  _387
REMARK  161  A    between atoms: _386  and  _389
REMARK  162  A    between atoms: _389  and  _390
REMARK  163  A    between atoms: _393  and  _395
REMARK  164  A    between atoms: _395  and  _396
REMARK  165  A    between atoms: _395  and  _398
REMARK  166  A    between atoms: _401  and  _403
REMARK  167  A    between atoms: _403  and  _404
REMARK  168  A    between atoms: _403  and  _406
REMARK  169  A    between atoms: _406  and  _407
REMARK  170  A    between atoms: _410  and  _412
REMARK  171  A    between atoms: _412  and  _413
REMARK  172  A    between atoms: _412  and  _415
REMARK  173  A    between atoms: _415  and  _416
REMARK  174  A    between atoms: _420  and  _421
REMARK  175  A    between atoms: _426  and  _428
REMARK  176  A    between atoms: _428  and  _429
REMARK  177  A    between atoms: _428  and  _431
REMARK  178  A    between atoms: _434  and  _436
REMARK  179  A    between atoms: _436  and  _437
REMARK  180  A    between atoms: _436  and  _439
REMARK  181  A    between atoms: _439  and  _440
REMARK  182  A    between atoms: _445  and  _447
REMARK  183  A    between atoms: _447  and  _448
REMARK  184  A    between atoms: _447  and  _450
REMARK  185  A    between atoms: _450  and  _451
REMARK  186  A    between atoms: _454  and  _456
REMARK  187  A    between atoms: _456  and  _457
REMARK  188  A    between atoms: _456  and  _459
REMARK  189  A    between atoms: _459  and  _460
REMARK  190  A    between atoms: _463  and  _465
REMARK  191  A    between atoms: _465  and  _466
REMARK  192  A    between atoms: _468  and  _470
REMARK  193  A    between atoms: _470  and  _471
REMARK  194  A    between atoms: _470  and  _473
REMARK  195  A    between atoms: _473  and  _474
REMARK  196  A    between atoms: _474  and  _475
REMARK  197  A    between atoms: _475  and  _476
REMARK  198  A    between atoms: _485  and  _487
REMARK  199  A    between atoms: _487  and  _488
REMARK  200  A    between atoms: _487  and  _490
REMARK  201  A    between atoms: _490  and  _491
REMARK                            x       y       z     vdW  Elec       q    Type
REMARK                         _______ _______ _______ _____ _____    ______ ____
ROOT
ATOM      1  C   GLY A   5      19.521  30.992  20.349  0.00  0.00    +0.243 C 
ATOM      2  N   ALA A   6      18.236  30.693  20.535  0.00  0.00    -0.297 N 
ATOM      3  H   ALA A   6      18.006  29.781  20.979  0.00  0.00    +0.150 HD
ATOM      4  O   GLY A   5      19.915  32.060  19.881  0.00  0.00    -0.273 OA
ENDROOT
BRANCH   2   5
ATOM      5  CA  ALA A   6      17.134  31.567  20.153  0.00  0.00    +0.149 C 
ATOM      6  CB  ALA A   6      16.055  30.755  19.437  0.00  0.00    +0.031 C 
BRANCH   5   7
ATOM      7  C   ALA A   6      16.538  32.244  21.395  0.00  0.00    +0.241 C 
ATOM      8  O   ALA A   6      16.014  31.569  22.286  0.00  0.00    -0.273 OA
ATOM      9  N   ASP A   7      16.625  33.568  21.470  0.00  0.00    -0.297 N 
ATOM     10  H   ASP A   7      17.120  34.096  20.723  0.00  0.00    +0.150 HD
BRANCH   9  11
ATOM     11  CA  ASP A   7      16.024  34.294  22.605  0.00  0.00    +0.160 C 
BRANCH  11  12
ATOM     12  C   ASP A   7      14.518  34.083  22.635  0.00  0.00    +0.241 C 
ATOM     13  O   ASP A   7      13.920  33.918  23.718  0.00  0.00    -0.273 OA
ATOM     14  N   ASP A   8      13.919  34.115  21.443  0.00  0.00    -0.297 N 
ATOM     15  H   ASP A   8      14.520  34.174  20.596  0.00  0.00    +0.150 HD
BRANCH  14  16
ATOM     16  CA  ASP A   8      12.475  34.073  21.255  0.00  0.00    +0.160 C 
BRANCH  16  17
ATOM     17  C   ASP A   8      12.070  32.869  20.401  0.00  0.00    +0.241 C 
ATOM     18  N   THR A   9      10.787  32.551  20.469  0.00  0.00    -0.295 N 
ATOM     19  H   THR A   9      10.172  33.121  21.085  0.00  0.00    +0.150 HD
ATOM     20  O   ASP A   8      12.894  32.241  19.735  0.00  0.00    -0.273 OA
BRANCH  18  21
ATOM     21  CA  THR A   9      10.191  31.455  19.735  0.00  0.00    +0.176 C 
BRANCH  21  22
ATOM     22  C   THR A   9       9.710  31.986  18.378  0.00  0.00    +0.243 C 
ATOM     23  O   THR A   9       8.993  32.988  18.309  0.00  0.00    -0.273 OA
ATOM     24  N   VAL A  10      10.124  31.315  17.310  0.00  0.00    -0.298 N 
ATOM     25  H   VAL A  10      10.706  30.465  17.451  0.00  0.00    +0.150 HD
BRANCH  24  26
ATOM     26  CA  VAL A  10       9.798  31.718  15.949  0.00  0.00    +0.137 C 
BRANCH  26  27
ATOM     27  CB  VAL A  10      11.044  32.161  15.161  0.00  0.00    +0.026 C 
ATOM     28  CG2 VAL A  10      11.967  33.030  16.023  0.00  0.00    +0.002 C 
ATOM     29  CG1 VAL A  10      10.618  32.911  13.880  0.00  0.00    +0.002 C 
ENDBRANCH  26  27
BRANCH  26  30
ATOM     30  C   VAL A  10       9.144  30.549  15.217  0.00  0.00    +0.227 C 
ATOM     31  O   VAL A  10       9.751  29.476  15.056  0.00  0.00    -0.286 OA
ENDBRANCH  26  30
ENDBRANCH  24  26
ENDBRANCH  21  22
BRANCH  21  32
ATOM     32  CB  THR A   9       9.026  30.832  20.566  0.00  0.00    +0.137 C 
ATOM     33  CG2 THR A   9       8.251  29.778  19.793  0.00  0.00    +0.034 C 
BRANCH  32  34
ATOM     34  OG1 THR A   9       9.567  30.211  21.727  0.00  0.00    -0.382 OA
ATOM     35  HG1 THR A   9      10.042  30.888  22.271  0.00  0.00    +0.210 HD
ENDBRANCH  32  34
ENDBRANCH  21  32
ENDBRANCH  18  21
ENDBRANCH  16  17
BRANCH  16  36
ATOM     36  CB  ASP A   8      11.995  35.366  20.581  0.00  0.00    +0.143 C 
BRANCH  36  37
ATOM     37  CG  ASP A   8      12.197  36.606  21.462  0.00  0.00    +0.367 C 
ATOM     38  OD2 ASP A   8      12.301  36.464  22.694  0.00  0.00    -0.246 OA
ATOM     39  OD1 ASP A   8      12.245  37.722  20.921  0.00  0.00    -0.246 OA
ENDBRANCH  36  37
ENDBRANCH  16  36
ENDBRANCH  14  16
ENDBRANCH  11  12
BRANCH  11  40
ATOM     40  CB  ASP A   7      16.262  35.807  22.525  0.00  0.00    +0.143 C 
BRANCH  40  41
ATOM     41  CG  ASP A   7      17.730  36.191  22.546  0.00  0.00    +0.367 C 
ATOM     42  OD2 ASP A   7      18.574  35.391  22.971  0.00  0.00    -0.246 OA
ATOM     43  OD1 ASP A   7      18.022  37.332  22.154  0.00  0.00    -0.246 OA
ENDBRANCH  40  41
ENDBRANCH  11  40
ENDBRANCH   9  11
ENDBRANCH   5   7
ENDBRANCH   2   5
BRANCH   1  44
ATOM     44  CA  GLY A   5      20.527  29.920  20.737  0.00  0.00    +0.176 C 
BRANCH  44  47
ATOM     45  C   THR A   4      19.731  28.702  22.692  0.00  0.00    +0.243 C 
ATOM     46  O   THR A   4      19.996  29.637  23.452  0.00  0.00    -0.273 OA
ATOM     47  N   GLY A   5      19.981  28.735  21.383  0.00  0.00    -0.295 N 
ATOM     48  H   GLY A   5      19.781  27.892  20.808  0.00  0.00    +0.150 HD
BRANCH  45  49
ATOM     49  CA  THR A   4      19.083  27.429  23.235  0.00  0.00    +0.176 C 
BRANCH  49  51
ATOM     50  C   ASP A   3      17.395  26.990  21.528  0.00  0.00    +0.241 C 
ATOM     51  N   THR A   4      18.478  26.604  22.189  0.00  0.00    -0.295 N 
ATOM     52  H   THR A   4      18.910  25.687  21.957  0.00  0.00    +0.150 HD
ATOM     53  O   ASP A   3      16.830  28.078  21.729  0.00  0.00    -0.273 OA
BRANCH  50  54
ATOM     54  CA  ASP A   3      16.907  26.011  20.454  0.00  0.00    +0.160 C 
BRANCH  54  56
ATOM     55  C   LEU A   2      15.862  23.850  20.880  0.00  0.00    +0.241 C 
ATOM     56  N   ASP A   3      15.797  25.187  20.880  0.00  0.00    -0.297 N 
ATOM     57  H   ASP A   3      14.920  25.648  21.196  0.00  0.00    +0.150 HD
ATOM     58  O   LEU A   2      16.911  23.207  20.746  0.00  0.00    -0.273 OA
BRANCH  55  59
ATOM     59  CA  LEU A   2      14.541  23.116  21.041  0.00  0.00    +0.149 C 
BRANCH  59  61
ATOM     60  C   LEU A   1      13.737  23.332  18.763  0.00  0.00    +0.238 C 
ATOM     61  N   LEU A   2      14.238  22.566  19.726  0.00  0.00    -0.297 N 
ATOM     62  H   LEU A   2      14.417  21.559  19.539  0.00  0.00    +0.150 HD
ATOM     63  O   LEU A   1      13.287  24.443  18.963  0.00  0.00    -0.274 OA
BRANCH  60  64
ATOM     64  CA  LEU A   1      13.774  22.787  17.356  0.00  0.00    +0.145 C 
BRANCH  64  65
ATOM     65  N   LEU A   1      12.468  22.942  16.736  0.00  0.00    -0.238 NA
ATOM     66  H   LEU A   1      12.314  23.748  16.097  0.00  0.00    +0.142 HD
ENDBRANCH  64  65
BRANCH  64  67
ATOM     67  CB  LEU A   1      14.841  23.607  16.635  0.00  0.00    +0.026 C 
BRANCH  67  68
ATOM     68  CG  LEU A   1      15.346  23.212  15.265  0.00  0.00    +0.002 C 
ATOM     69  CD2 LEU A   1      16.157  21.961  15.393  0.00  0.00    +0.000 C 
ATOM     70  CD1 LEU A   1      16.159  24.371  14.679  0.00  0.00    +0.000 C 
ENDBRANCH  67  68
ENDBRANCH  64  67
ENDBRANCH  60  64
ENDBRANCH  59  61
BRANCH  59  71
ATOM     71  CB  LEU A   2      14.676  22.017  22.087  0.00  0.00    +0.029 C 
BRANCH  71  72
ATOM     72  CG  LEU A   2      13.466  21.111  22.271  0.00  0.00    +0.002 C 
ATOM     73  CD2 LEU A   2      13.800  20.072  23.310  0.00  0.00    +0.000 C 
ATOM     74  CD1 LEU A   2      12.222  21.907  22.662  0.00  0.00    +0.000 C 
ENDBRANCH  71  72
ENDBRANCH  59  71
ENDBRANCH  55  59
ENDBRANCH  54  56
BRANCH  54  75
ATOM     75  CB  ASP A   3      16.529  26.759  19.172  0.00  0.00    +0.143 C 
BRANCH  75  76
ATOM     76  CG  ASP A   3      17.721  27.425  18.520  0.00  0.00    +0.367 C 
ATOM     77  OD2 ASP A   3      18.825  27.376  19.104  0.00  0.00    -0.246 OA
ATOM     78  OD1 ASP A   3      17.560  27.995  17.424  0.00  0.00    -0.246 OA
ENDBRANCH  75  76
ENDBRANCH  54  75
ENDBRANCH  50  54
ENDBRANCH  49  51
BRANCH  49  79
ATOM     79  CB  THR A   4      20.136  26.641  24.005  0.00  0.00    +0.137 C 
ATOM     80  CG2 THR A   4      19.505  25.443  24.647  0.00  0.00    +0.034 C 
BRANCH  79  81
ATOM     81  OG1 THR A   4      21.184  26.226  23.109  0.00  0.00    -0.382 OA
ATOM     82  HG1 THR A   4      21.604  27.025  22.702  0.00  0.00    +0.210 HD
ENDBRANCH  79  81
ENDBRANCH  49  79
ENDBRANCH  45  49
ENDBRANCH  44  47
ENDBRANCH   1  44
TORSDOF 35
REMARK  Name = ../refined-set-2016/2qi7/2qi7_pocket.pdb
REMARK  201 active torsions:
REMARK  status: ('A' for Active; 'I' for Inactive)
REMARK    1  A    between atoms: _1  and  _3
REMARK    2  A    between atoms: _3  and  _4
REMARK    3  A    between atoms: _3  and  _6
REMARK    4  A    between atoms: _6  and  _7
REMARK    5  A    between atoms: _7  and  _8
REMARK    6  A    between atoms: _8  and  _9
REMARK    7  A    between atoms: _18  and  _20
REMARK    8  A    between atoms: _20  and  _21
REMARK    9  A    between atoms: _20  and  _23
REMARK   10  A    between atoms: _23  and  _24
REMARK   11  A    between atoms: _27  and  _29
REMARK   12  A    between atoms: _29  and  _30
REMARK   13  A    between atoms: _29  and  _32
REMARK   14  A    between atoms: _32  and  _33
REMARK   15  A    between atoms: _36  and  _38
REMARK   16  A    between atoms: _38  and  _39
REMARK   17  A    between atoms: _38  and  _41
REMARK   18  A    between atoms: _41  and  _42
REMARK   19  A    between atoms: _45  and  _47
REMARK   20  A    between atoms: _47  and  _48
REMARK   21  A    between atoms: _47  and  _50
REMARK   22  A    between atoms: _50  and  _51
REMARK   23  A    between atoms: _54  and  _56
REMARK   24  A    between atoms: _56  and  _57
REMARK   25  A    between atoms: _59  and  _61
REMARK   26  A    between atoms: _61  and  _62
REMARK   27  A    between atoms: _65  and  _67
REMARK   28  A    between atoms: _67  and  _68
REMARK   29  A    between atoms: _67  and  _70
REMARK   30  A    between atoms: _70  and  _71
REMARK   31  A    between atoms: _74  and  _76
REMARK   32  A    between atoms: _76  and  _77
REMARK   33  A    between atoms: _76  and  _79
REMARK   34  A    between atoms: _79  and  _80
REMARK   35  A    between atoms: _83  and  _85
REMARK   36  A    between atoms: _85  and  _86
REMARK   37  A    between atoms: _85  and  _88
REMARK   38  A    between atoms: _88  and  _89
REMARK   39  A    between atoms: _92  and  _94
REMARK   40  A    between atoms: _94  and  _95
REMARK   41  A    between atoms: _94  and  _97
REMARK   42  A    between atoms: _100  and  _102
REMARK   43  A    between atoms: _102  and  _103
REMARK   44  A    between atoms: _102  and  _105
REMARK   45  A    between atoms: _105  and  _106
REMARK   46  A    between atoms: _109  and  _111
REMARK   47  A    between atoms: _111  and  _112
REMARK   48  A    between atoms: _114  and  _116
REMARK   49  A    between atoms: _116  and  _117
REMARK   50  A    between atoms: _119  and  _121
REMARK   51  A    between atoms: _121  and  _122
REMARK   52  A    between atoms: _121  and  _124
REMARK   53  A    between atoms: _124  and  _125
REMARK   54  A    between atoms: _128  and  _130
REMARK   55  A    between atoms: _130  and  _131
REMARK   56  A    between atoms: _133  and  _135
REMARK   57  A    between atoms: _135  and  _136
REMARK   58  A    between atoms: _138  and  _140
REMARK   59  A    between atoms: _140  and  _141
REMARK   60  A    between atoms: _140  and  _143
REMARK   61  A    between atoms: _143  and  _144
REMARK   62  A    between atoms: _150  and  _152
REMARK   63  A    between atoms: _152  and  _153
REMARK   64  A    between atoms: _152  and  _155
REMARK   65  A    between atoms: _155  and  _156
REMARK   66  A    between atoms: _160  and  _161
REMARK   67  A    between atoms: _166  and  _168
REMARK   68  A    between atoms: _168  and  _169
REMARK   69  A    between atoms: _168  and  _171
REMARK   70  A    between atoms: _174  and  _176
REMARK   71  A    between atoms: _176  and  _177
REMARK   72  A    between atoms: _176  and  _179
REMARK   73  A    between atoms: _179  and  _180
REMARK   74  A    between atoms: _185  and  _187
REMARK   75  A    between atoms: _187  and  _188
REMARK   76  A    between atoms: _187  and  _190
REMARK   77  A    between atoms: _190  and  _191
REMARK   78  A    between atoms: _194  and  _196
REMARK   79  A    between atoms: _196  and  _197
REMARK   80  A    between atoms: _196  and  _199
REMARK   81  A    between atoms: _199  and  _200
REMARK   82  A    between atoms: _203  and  _205
REMARK   83  A    between atoms: _205  and  _206
REMARK   84  A    between atoms: _208  and  _210
REMARK   85  A    between atoms: _210  and  _211
REMARK   86  A    between atoms: _210  and  _213
REMARK   87  A    between atoms: _213  and  _214
REMARK   88  A    between atoms: _214  and  _215
REMARK   89  A    between atoms: _215  and  _216
REMARK   90  A    between atoms: _225  and  _227
REMARK   91  A    between atoms: _227  and  _228
REMARK   92  A    between atoms: _227  and  _230
REMARK   93  A    between atoms: _230  and  _231
REMARK   94  A    between atoms: _231  and  _232
REMARK   95  A    between atoms: _232  and  _233
REMARK   96  A    between atoms: _242  and  _244
REMARK   97  A    between atoms: _244  and  _245
REMARK   98  A    between atoms: _244  and  _247
REMARK   99  A    between atoms: _247  and  _248
REMARK  100  A    between atoms: _251  and  _253
REMARK  101  A    between atoms: _253  and  _254
REMARK  102  A    between atoms: _253  and  _256
REMARK  103  A    between atoms: _256  and  _257
REMARK  104  A    between atoms: _260  and  _262
REMARK  105  A    between atoms: _262  and  _263
REMARK  106  A    between atoms: _262  and  _265
REMARK  107  A    between atoms: _265  and  _266
REMARK  108  A    between atoms: _269  and  _271
REMARK  109  A    between atoms: _271  and  _272
REMARK  110  A    between atoms: _271  and  _274
REMARK  111  A    between atoms: _274  and  _275
REMARK  112  A    between atoms: _278  and  _280
REMARK  113  A    between atoms: _280  and  _281
REMARK  114  A    between atoms: _283  and  _285
REMARK  115  A    between atoms: _285  and  _286
REMARK  116  A    between atoms: _289  and  _291
REMARK  117  A    between atoms: _291  and  _292
REMARK  118  A    between atoms: _291  and  _294
REMARK  119  A    between atoms: _294  and  _295
REMARK  120  A    between atoms: _298  and  _300
REMARK  121  A    between atoms: _300  and  _301
REMARK  122  A    between atoms: _300  and  _303
REMARK  123  A    between atoms: _303  and  _304
REMARK  124  A    between atoms: _307  and  _309
REMARK  125  A    between atoms: _309  and  _310
REMARK  126  A    between atoms: _309  and  _312
REMARK  127  A    between atoms: _312  and  _313
REMARK  128  A    between atoms: _316  and  _318
REMARK  129  A    between atoms: _318  and  _319
REMARK  130  A    between atoms: _318  and  _321
REMARK  131  A    between atoms: _324  and  _326
REMARK  132  A    between atoms: _326  and  _327
REMARK  133  A    between atoms: _326  and  _329
REMARK  134  A    between atoms: _329  and  _330
REMARK  135  A    between atoms: _330  and  _331
REMARK  136  A    between atoms: _331  and  _332
REMARK  137  A    between atoms: _332  and  _333
REMARK  138  A    between atoms: _337  and  _339
REMARK  139  A    between atoms: _339  and  _340
REMARK  140  A    between atoms: _339  and  _342
REMARK  141  A    between atoms: _342  and  _343
REMARK  142  A    between atoms: _343  and  _344
REMARK  143  A    between atoms: _346  and  _348
REMARK  144  A    between atoms: _348  and  _349
REMARK  145  A    between atoms: _348  and  _351
REMARK  146  A    between atoms: _351  and  _352
REMARK  147  A    between atoms: _355  and  _357
REMARK  148  A    between atoms: _357  and  _358
REMARK  149  A    between atoms: _360  and  _362
REMARK  150  A    between atoms: _362  and  _363
REMARK  151  A    between atoms: _365  and  _367
REMARK  152  A    between atoms: _367  and  _368
REMARK  153  A    between atoms: _367  and  _370
REMARK  154  A    between atoms: _370  and  _371
REMARK  155  A    between atoms: _374  and  _376
REMARK  156  A    between atoms: _376  and  _377
REMARK  157  A    between atoms: _379  and  _381
REMARK  158  A    between atoms: _381  and  _382
REMARK  159  A    between atoms: _384  and  _386
REMARK  160  A    between atoms: _386  and  _387
REMARK  161  A    between atoms: _386  and  _389
REMARK  162  A    between atoms: _389  and  _390
REMARK  163  A    between atoms: _393  and  _395
REMARK  164  A    between atoms: _395  and  _396
REMARK  165  A    between atoms: _395  and  _398
REMARK  166  A    between atoms: _401  and  _403
REMARK  167  A    between atoms: _403  and  _404
REMARK  168  A    between atoms: _403  and  _406
REMARK  169  A    between atoms: _406  and  _407
REMARK  170  A    between atoms: _410  and  _412
REMARK  171  A    between atoms: _412  and  _413
REMARK  172  A    between atoms: _412  and  _415
REMARK  173  A    between atoms: _415  and  _416
REMARK  174  A    between atoms: _420  and  _421
REMARK  175  A    between atoms: _426  and  _428
REMARK  176  A    between atoms: _428  and  _429
REMARK  177  A    between atoms: _428  and  _431
REMARK  178  A    between atoms: _434  and  _436
REMARK  179  A    between atoms: _436  and  _437
REMARK  180  A    between atoms: _436  and  _439
REMARK  181  A    between atoms: _439  and  _440
REMARK  182  A    between atoms: _445  and  _447
REMARK  183  A    between atoms: _447  and  _448
REMARK  184  A    between atoms: _447  and  _450
REMARK  185  A    between atoms: _450  and  _451
REMARK  186  A    between atoms: _454  and  _456
REMARK  187  A    between atoms: _456  and  _457
REMARK  188  A    between atoms: _456  and  _459
REMARK  189  A    between atoms: _459  and  _460
REMARK  190  A    between atoms: _463  and  _465
REMARK  191  A    between atoms: _465  and  _466
REMARK  192  A    between atoms: _468  and  _470
REMARK  193  A    between atoms: _470  and  _471
REMARK  194  A    between atoms: _470  and  _473
REMARK  195  A    between atoms: _473  and  _474
REMARK  196  A    between atoms: _474  and  _475
REMARK  197  A    between atoms: _475  and  _476
REMARK  198  A    between atoms: _485  and  _487
REMARK  199  A    between atoms: _487  and  _488
REMARK  200  A    between atoms: _487  and  _490
REMARK  201  A    between atoms: _490  and  _491
REMARK                            x       y       z     vdW  Elec       q    Type
REMARK                         _______ _______ _______ _____ _____    ______ ____
ROOT
ATOM      1  C   ILE A   3      15.882  39.100  13.058  0.00  0.00    +0.241 C 
ATOM      2  N   GLY A   4      17.087  39.015  13.605  0.00  0.00    -0.295 N 
ATOM      3  H   GLY A   4      17.181  39.110  14.636  0.00  0.00    +0.150 HD
ATOM      4  O   ILE A   3      15.651  38.884  11.874  0.00  0.00    -0.273 OA
ENDROOT
BRANCH   2   5
ATOM      5  CA  GLY A   4      18.266  38.796  12.815  0.00  0.00    +0.176 C 
BRANCH   5   6
ATOM      6  C   GLY A   4      19.011  37.542  13.215  0.00  0.00    +0.243 C 
ATOM      7  O   GLY A   4      19.096  37.190  14.396  0.00  0.00    -0.273 OA
ATOM      8  N   GLY A   5      19.582  36.888  12.213  0.00  0.00    -0.295 N 
ATOM      9  H   GLY A   5      19.415  37.211  11.239  0.00  0.00    +0.150 HD
BRANCH   8  10
ATOM     10  CA  GLY A   5      20.432  35.737  12.437  0.00  0.00    +0.176 C 
BRANCH  10  11
ATOM     11  C   GLY A   5      21.435  35.615  11.315  0.00  0.00    +0.243 C 
ATOM     12  N   ILE A   6      21.906  34.401  11.082  0.00  0.00    -0.297 N 
ATOM     13  H   ILE A   6      21.633  33.614  11.704  0.00  0.00    +0.150 HD
ATOM     14  O   GLY A   5      21.768  36.597  10.658  0.00  0.00    -0.273 OA
BRANCH  12  15
ATOM     15  CA  ILE A   6      22.804  34.158   9.962  0.00  0.00    +0.149 C 
BRANCH  15  16
ATOM     16  C   ILE A   6      22.061  34.471   8.658  0.00  0.00    +0.241 C 
ATOM     17  O   ILE A   6      20.955  33.988   8.439  0.00  0.00    -0.273 OA
ATOM     18  N   GLY A   7      22.662  35.323   7.830  0.00  0.00    -0.295 N 
ATOM     19  H   GLY A   7      23.590  35.711   8.095  0.00  0.00    +0.150 HD
BRANCH  18  20
ATOM     20  CA  GLY A   7      22.068  35.728   6.573  0.00  0.00    +0.176 C 
BRANCH  20  21
ATOM     21  C   GLY A   7      21.391  37.089   6.583  0.00  0.00    +0.243 C 
ATOM     22  N   GLY A   8      20.961  37.562   7.746  0.00  0.00    -0.296 N 
ATOM     23  H   GLY A   8      21.110  36.996   8.605  0.00  0.00    +0.150 HD
ATOM     24  O   GLY A   7      21.264  37.701   5.540  0.00  0.00    -0.273 OA
BRANCH  22  25
ATOM     25  CA  GLY A   8      20.285  38.852   7.859  0.00  0.00    +0.163 C 
BRANCH  25  26
ATOM     26  C   GLY A   8      19.007  38.759   8.670  0.00  0.00    +0.229 C 
ATOM     27  O   GLY A   8      18.885  37.926   9.562  0.00  0.00    -0.286 OA
ENDBRANCH  25  26
ENDBRANCH  22  25
ENDBRANCH  20  21
ENDBRANCH  18  20
ENDBRANCH  15  16
BRANCH  15  28
ATOM     28  CB  ILE A   6      23.343  32.715   9.976  0.00  0.00    +0.027 C 
ATOM     29  CG2 ILE A   6      23.922  32.339   8.612  0.00  0.00    +0.002 C 
BRANCH  28  30
ATOM     30  CG1 ILE A   6      24.414  32.585  11.075  0.00  0.00    +0.002 C 
ATOM     31  CD1 ILE A   6      24.846  31.174  11.348  0.00  0.00    +0.000 C 
ENDBRANCH  28  30
ENDBRANCH  15  28
ENDBRANCH  12  15
ENDBRANCH  10  11
ENDBRANCH   8  10
ENDBRANCH   5   6
ENDBRANCH   2   5
BRANCH   1  32
ATOM     32  CA  ILE A   3      14.780  39.533  13.993  0.00  0.00    +0.149 C 
BRANCH  32  35
ATOM     33  C   MET A   2      13.484  41.568  13.593  0.00  0.00    +0.241 C 
ATOM     34  O   MET A   2      13.983  42.150  14.558  0.00  0.00    -0.273 OA
ATOM     35  N   ILE A   3      13.791  40.315  13.250  0.00  0.00    -0.297 N 
ATOM     36  H   ILE A   3      13.315  39.883  12.433  0.00  0.00    +0.150 HD
BRANCH  33  37
ATOM     37  CA  MET A   2      12.472  42.288  12.722  0.00  0.00    +0.149 C 
BRANCH  37  39
ATOM     38  C   LYS A   1      10.133  42.551  13.392  0.00  0.00    +0.238 C 
ATOM     39  N   MET A   2      11.418  42.844  13.564  0.00  0.00    -0.297 N 
ATOM     40  H   MET A   2      11.683  43.496  14.330  0.00  0.00    +0.150 HD
ATOM     41  O   LYS A   1       9.707  41.872  12.448  0.00  0.00    -0.274 OA
BRANCH  38  42
ATOM     42  CA  LYS A   1       9.177  43.097  14.441  0.00  0.00    +0.145 C 
BRANCH  42  43
ATOM     43  N   LYS A   1       7.852  43.142  13.860  0.00  0.00    -0.238 NA
ATOM     44  H   LYS A   1       7.636  42.516  13.058  0.00  0.00    +0.142 HD
ENDBRANCH  42  43
BRANCH  42  45
ATOM     45  CB  LYS A   1       9.139  42.169  15.654  0.00  0.00    +0.026 C 
BRANCH  45  46
ATOM     46  CG  LYS A   1      10.359  42.140  16.538  0.00  0.00    -0.000 C 
BRANCH  46  47
ATOM     47  CD  LYS A   1      10.146  41.083  17.626  0.00  0.00    -0.024 C 
BRANCH  47  48
ATOM     48  CE  LYS A   1      11.387  40.852  18.448  0.00  0.00    -0.086 C 
BRANCH  48  49
ATOM     49  NZ  LYS A   1      11.511  41.845  19.536  0.00  0.00    +0.380 N 
ATOM     50  HZ1 LYS A   1      10.684  41.776  20.163  0.00  0.00    -0.089 HD
ATOM     51  HZ2 LYS A   1      12.376  41.655  20.080  0.00  0.00    -0.089 HD
ATOM     52  HZ3 LYS A   1      11.560  42.800  19.128  0.00  0.00    -0.089 HD
ENDBRANCH  48  49
ENDBRANCH  47  48
ENDBRANCH  46  47
ENDBRANCH  45  46
ENDBRANCH  42  45
ENDBRANCH  38  42
ENDBRANCH  37  39
BRANCH  37  53
ATOM     53  CB  MET A   2      13.172  43.409  11.963  0.00  0.00    +0.041 C 
BRANCH  53  54
ATOM     54  CG  MET A   2      12.367  43.935  10.811  0.00  0.00    +0.060 C 
BRANCH  54  55
ATOM     55  SD  MET A   2      12.709  42.996   9.327  0.00  0.00    -0.139 S 
ATOM     56  CE  MET A   2      14.089  43.926   8.663  0.00  0.00    +0.069 C 
ENDBRANCH  54  55
ENDBRANCH  53  54
ENDBRANCH  37  53
ENDBRANCH  33  37
ENDBRANCH  32  35
BRANCH  32  57
ATOM     57  CB  ILE A   3      14.169  38.339  14.727  0.00  0.00    +0.027 C 
ATOM     58  CG2 ILE A   3      13.219  38.841  15.798  0.00  0.00    +0.002 C 
BRANCH  57  59
ATOM     59  CG1 ILE A   3      13.463  37.386  13.750  0.00  0.00    +0.002 C 
ATOM     60  CD1 ILE A   3      13.067  36.079  14.387  0.00  0.00    +0.000 C 
ENDBRANCH  57  59
ENDBRANCH  32  57
ENDBRANCH   1  32
TORSDOF 28
REMARK  Name = ../refined-set-2016/2qi7/2qi7_pocket.pdb
REMARK  201 active torsions:
REMARK  status: ('A' for Active; 'I' for Inactive)
REMARK    1  A    between atoms: _1  and  _3
REMARK    2  A    between atoms: _3  and  _4
REMARK    3  A    between atoms: _3  and  _6
REMARK    4  A    between atoms: _6  and  _7
REMARK    5  A    between atoms: _7  and  _8
REMARK    6  A    between atoms: _8  and  _9
REMARK    7  A    between atoms: _18  and  _20
REMARK    8  A    between atoms: _20  and  _21
REMARK    9  A    between atoms: _20  and  _23
REMARK   10  A    between atoms: _23  and  _24
REMARK   11  A    between atoms: _27  and  _29
REMARK   12  A    between atoms: _29  and  _30
REMARK   13  A    between atoms: _29  and  _32
REMARK   14  A    between atoms: _32  and  _33
REMARK   15  A    between atoms: _36  and  _38
REMARK   16  A    between atoms: _38  and  _39
REMARK   17  A    between atoms: _38  and  _41
REMARK   18  A    between atoms: _41  and  _42
REMARK   19  A    between atoms: _45  and  _47
REMARK   20  A    between atoms: _47  and  _48
REMARK   21  A    between atoms: _47  and  _50
REMARK   22  A    between atoms: _50  and  _51
REMARK   23  A    between atoms: _54  and  _56
REMARK   24  A    between atoms: _56  and  _57
REMARK   25  A    between atoms: _59  and  _61
REMARK   26  A    between atoms: _61  and  _62
REMARK   27  A    between atoms: _65  and  _67
REMARK   28  A    between atoms: _67  and  _68
REMARK   29  A    between atoms: _67  and  _70
REMARK   30  A    between atoms: _70  and  _71
REMARK   31  A    between atoms: _74  and  _76
REMARK   32  A    between atoms: _76  and  _77
REMARK   33  A    between atoms: _76  and  _79
REMARK   34  A    between atoms: _79  and  _80
REMARK   35  A    between atoms: _83  and  _85
REMARK   36  A    between atoms: _85  and  _86
REMARK   37  A    between atoms: _85  and  _88
REMARK   38  A    between atoms: _88  and  _89
REMARK   39  A    between atoms: _92  and  _94
REMARK   40  A    between atoms: _94  and  _95
REMARK   41  A    between atoms: _94  and  _97
REMARK   42  A    between atoms: _100  and  _102
REMARK   43  A    between atoms: _102  and  _103
REMARK   44  A    between atoms: _102  and  _105
REMARK   45  A    between atoms: _105  and  _106
REMARK   46  A    between atoms: _109  and  _111
REMARK   47  A    between atoms: _111  and  _112
REMARK   48  A    between atoms: _114  and  _116
REMARK   49  A    between atoms: _116  and  _117
REMARK   50  A    between atoms: _119  and  _121
REMARK   51  A    between atoms: _121  and  _122
REMARK   52  A    between atoms: _121  and  _124
REMARK   53  A    between atoms: _124  and  _125
REMARK   54  A    between atoms: _128  and  _130
REMARK   55  A    between atoms: _130  and  _131
REMARK   56  A    between atoms: _133  and  _135
REMARK   57  A    between atoms: _135  and  _136
REMARK   58  A    between atoms: _138  and  _140
REMARK   59  A    between atoms: _140  and  _141
REMARK   60  A    between atoms: _140  and  _143
REMARK   61  A    between atoms: _143  and  _144
REMARK   62  A    between atoms: _150  and  _152
REMARK   63  A    between atoms: _152  and  _153
REMARK   64  A    between atoms: _152  and  _155
REMARK   65  A    between atoms: _155  and  _156
REMARK   66  A    between atoms: _160  and  _161
REMARK   67  A    between atoms: _166  and  _168
REMARK   68  A    between atoms: _168  and  _169
REMARK   69  A    between atoms: _168  and  _171
REMARK   70  A    between atoms: _174  and  _176
REMARK   71  A    between atoms: _176  and  _177
REMARK   72  A    between atoms: _176  and  _179
REMARK   73  A    between atoms: _179  and  _180
REMARK   74  A    between atoms: _185  and  _187
REMARK   75  A    between atoms: _187  and  _188
REMARK   76  A    between atoms: _187  and  _190
REMARK   77  A    between atoms: _190  and  _191
REMARK   78  A    between atoms: _194  and  _196
REMARK   79  A    between atoms: _196  and  _197
REMARK   80  A    between atoms: _196  and  _199
REMARK   81  A    between atoms: _199  and  _200
REMARK   82  A    between atoms: _203  and  _205
REMARK   83  A    between atoms: _205  and  _206
REMARK   84  A    between atoms: _208  and  _210
REMARK   85  A    between atoms: _210  and  _211
REMARK   86  A    between atoms: _210  and  _213
REMARK   87  A    between atoms: _213  and  _214
REMARK   88  A    between atoms: _214  and  _215
REMARK   89  A    between atoms: _215  and  _216
REMARK   90  A    between atoms: _225  and  _227
REMARK   91  A    between atoms: _227  and  _228
REMARK   92  A    between atoms: _227  and  _230
REMARK   93  A    between atoms: _230  and  _231
REMARK   94  A    between atoms: _231  and  _232
REMARK   95  A    between atoms: _232  and  _233
REMARK   96  A    between atoms: _242  and  _244
REMARK   97  A    between atoms: _244  and  _245
REMARK   98  A    between atoms: _244  and  _247
REMARK   99  A    between atoms: _247  and  _248
REMARK  100  A    between atoms: _251  and  _253
REMARK  101  A    between atoms: _253  and  _254
REMARK  102  A    between atoms: _253  and  _256
REMARK  103  A    between atoms: _256  and  _257
REMARK  104  A    between atoms: _260  and  _262
REMARK  105  A    between atoms: _262  and  _263
REMARK  106  A    between atoms: _262  and  _265
REMARK  107  A    between atoms: _265  and  _266
REMARK  108  A    between atoms: _269  and  _271
REMARK  109  A    between atoms: _271  and  _272
REMARK  110  A    between atoms: _271  and  _274
REMARK  111  A    between atoms: _274  and  _275
REMARK  112  A    between atoms: _278  and  _280
REMARK  113  A    between atoms: _280  and  _281
REMARK  114  A    between atoms: _283  and  _285
REMARK  115  A    between atoms: _285  and  _286
REMARK  116  A    between atoms: _289  and  _291
REMARK  117  A    between atoms: _291  and  _292
REMARK  118  A    between atoms: _291  and  _294
REMARK  119  A    between atoms: _294  and  _295
REMARK  120  A    between atoms: _298  and  _300
REMARK  121  A    between atoms: _300  and  _301
REMARK  122  A    between atoms: _300  and  _303
REMARK  123  A    between atoms: _303  and  _304
REMARK  124  A    between atoms: _307  and  _309
REMARK  125  A    between atoms: _309  and  _310
REMARK  126  A    between atoms: _309  and  _312
REMARK  127  A    between atoms: _312  and  _313
REMARK  128  A    between atoms: _316  and  _318
REMARK  129  A    between atoms: _318  and  _319
REMARK  130  A    between atoms: _318  and  _321
REMARK  131  A    between atoms: _324  and  _326
REMARK  132  A    between atoms: _326  and  _327
REMARK  133  A    between atoms: _326  and  _329
REMARK  134  A    between atoms: _329  and  _330
REMARK  135  A    between atoms: _330  and  _331
REMARK  136  A    between atoms: _331  and  _332
REMARK  137  A    between atoms: _332  and  _333
REMARK  138  A    between atoms: _337  and  _339
REMARK  139  A    between atoms: _339  and  _340
REMARK  140  A    between atoms: _339  and  _342
REMARK  141  A    between atoms: _342  and  _343
REMARK  142  A    between atoms: _343  and  _344
REMARK  143  A    between atoms: _346  and  _348
REMARK  144  A    between atoms: _348  and  _349
REMARK  145  A    between atoms: _348  and  _351
REMARK  146  A    between atoms: _351  and  _352
REMARK  147  A    between atoms: _355  and  _357
REMARK  148  A    between atoms: _357  and  _358
REMARK  149  A    between atoms: _360  and  _362
REMARK  150  A    between atoms: _362  and  _363
REMARK  151  A    between atoms: _365  and  _367
REMARK  152  A    between atoms: _367  and  _368
REMARK  153  A    between atoms: _367  and  _370
REMARK  154  A    between atoms: _370  and  _371
REMARK  155  A    between atoms: _374  and  _376
REMARK  156  A    between atoms: _376  and  _377
REMARK  157  A    between atoms: _379  and  _381
REMARK  158  A    between atoms: _381  and  _382
REMARK  159  A    between atoms: _384  and  _386
REMARK  160  A    between atoms: _386  and  _387
REMARK  161  A    between atoms: _386  and  _389
REMARK  162  A    between atoms: _389  and  _390
REMARK  163  A    between atoms: _393  and  _395
REMARK  164  A    between atoms: _395  and  _396
REMARK  165  A    between atoms: _395  and  _398
REMARK  166  A    between atoms: _401  and  _403
REMARK  167  A    between atoms: _403  and  _404
REMARK  168  A    between atoms: _403  and  _406
REMARK  169  A    between atoms: _406  and  _407
REMARK  170  A    between atoms: _410  and  _412
REMARK  171  A    between atoms: _412  and  _413
REMARK  172  A    between atoms: _412  and  _415
REMARK  173  A    between atoms: _415  and  _416
REMARK  174  A    between atoms: _420  and  _421
REMARK  175  A    between atoms: _426  and  _428
REMARK  176  A    between atoms: _428  and  _429
REMARK  177  A    between atoms: _428  and  _431
REMARK  178  A    between atoms: _434  and  _436
REMARK  179  A    between atoms: _436  and  _437
REMARK  180  A    between atoms: _436  and  _439
REMARK  181  A    between atoms: _439  and  _440
REMARK  182  A    between atoms: _445  and  _447
REMARK  183  A    between atoms: _447  and  _448
REMARK  184  A    between atoms: _447  and  _450
REMARK  185  A    between atoms: _450  and  _451
REMARK  186  A    between atoms: _454  and  _456
REMARK  187  A    between atoms: _456  and  _457
REMARK  188  A    between atoms: _456  and  _459
REMARK  189  A    between atoms: _459  and  _460
REMARK  190  A    between atoms: _463  and  _465
REMARK  191  A    between atoms: _465  and  _466
REMARK  192  A    between atoms: _468  and  _470
REMARK  193  A    between atoms: _470  and  _471
REMARK  194  A    between atoms: _470  and  _473
REMARK  195  A    between atoms: _473  and  _474
REMARK  196  A    between atoms: _474  and  _475
REMARK  197  A    between atoms: _475  and  _476
REMARK  198  A    between atoms: _485  and  _487
REMARK  199  A    between atoms: _487  and  _488
REMARK  200  A    between atoms: _487  and  _490
REMARK  201  A    between atoms: _490  and  _491
REMARK                            x       y       z     vdW  Elec       q    Type
REMARK                         _______ _______ _______ _____ _____    ______ ____
ROOT
ATOM      1  CA  ILE A   1      13.330  38.563   8.542  0.00  0.00    +0.133 C 
ENDROOT
BRANCH   1   2
ATOM      2  N   ILE A   1      14.648  38.825   9.112  0.00  0.00    -0.239 NA
ATOM      3  H   ILE A   1      14.795  38.671  10.130  0.00  0.00    +0.142 HD
ENDBRANCH   1   2
BRANCH   1   4
ATOM      4  C   ILE A   1      12.301  39.342   9.327  0.00  0.00    +0.224 C 
ATOM      5  O   ILE A   1      12.542  39.727  10.482  0.00  0.00    -0.287 OA
ENDBRANCH   1   4
BRANCH   1   6
ATOM      6  CB  ILE A   1      12.967  37.055   8.515  0.00  0.00    +0.023 C 
ATOM      7  CG2 ILE A   1      13.949  36.314   7.599  0.00  0.00    +0.002 C 
BRANCH   6   8
ATOM      8  CG1 ILE A   1      12.915  36.455   9.926  0.00  0.00    +0.002 C 
ATOM      9  CD1 ILE A   1      12.170  35.137   9.990  0.00  0.00    +0.000 C 
ENDBRANCH   6   8
ENDBRANCH   1   6
TORSDOF 4
REMARK  Name = ../refined-set-2016/2qi7/2qi7_pocket.pdb
REMARK  201 active torsions:
REMARK  status: ('A' for Active; 'I' for Inactive)
REMARK    1  A    between atoms: _1  and  _3
REMARK    2  A    between atoms: _3  and  _4
REMARK    3  A    between atoms: _3  and  _6
REMARK    4  A    between atoms: _6  and  _7
REMARK    5  A    between atoms: _7  and  _8
REMARK    6  A    between atoms: _8  and  _9
REMARK    7  A    between atoms: _18  and  _20
REMARK    8  A    between atoms: _20  and  _21
REMARK    9  A    between atoms: _20  and  _23
REMARK   10  A    between atoms: _23  and  _24
REMARK   11  A    between atoms: _27  and  _29
REMARK   12  A    between atoms: _29  and  _30
REMARK   13  A    between atoms: _29  and  _32
REMARK   14  A    between atoms: _32  and  _33
REMARK   15  A    between atoms: _36  and  _38
REMARK   16  A    between atoms: _38  and  _39
REMARK   17  A    between atoms: _38  and  _41
REMARK   18  A    between atoms: _41  and  _42
REMARK   19  A    between atoms: _45  and  _47
REMARK   20  A    between atoms: _47  and  _48
REMARK   21  A    between atoms: _47  and  _50
REMARK   22  A    between atoms: _50  and  _51
REMARK   23  A    between atoms: _54  and  _56
REMARK   24  A    between atoms: _56  and  _57
REMARK   25  A    between atoms: _59  and  _61
REMARK   26  A    between atoms: _61  and  _62
REMARK   27  A    between atoms: _65  and  _67
REMARK   28  A    between atoms: _67  and  _68
REMARK   29  A    between atoms: _67  and  _70
REMARK   30  A    between atoms: _70  and  _71
REMARK   31  A    between atoms: _74  and  _76
REMARK   32  A    between atoms: _76  and  _77
REMARK   33  A    between atoms: _76  and  _79
REMARK   34  A    between atoms: _79  and  _80
REMARK   35  A    between atoms: _83  and  _85
REMARK   36  A    between atoms: _85  and  _86
REMARK   37  A    between atoms: _85  and  _88
REMARK   38  A    between atoms: _88  and  _89
REMARK   39  A    between atoms: _92  and  _94
REMARK   40  A    between atoms: _94  and  _95
REMARK   41  A    between atoms: _94  and  _97
REMARK   42  A    between atoms: _100  and  _102
REMARK   43  A    between atoms: _102  and  _103
REMARK   44  A    between atoms: _102  and  _105
REMARK   45  A    between atoms: _105  and  _106
REMARK   46  A    between atoms: _109  and  _111
REMARK   47  A    between atoms: _111  and  _112
REMARK   48  A    between atoms: _114  and  _116
REMARK   49  A    between atoms: _116  and  _117
REMARK   50  A    between atoms: _119  and  _121
REMARK   51  A    between atoms: _121  and  _122
REMARK   52  A    between atoms: _121  and  _124
REMARK   53  A    between atoms: _124  and  _125
REMARK   54  A    between atoms: _128  and  _130
REMARK   55  A    between atoms: _130  and  _131
REMARK   56  A    between atoms: _133  and  _135
REMARK   57  A    between atoms: _135  and  _136
REMARK   58  A    between atoms: _138  and  _140
REMARK   59  A    between atoms: _140  and  _141
REMARK   60  A    between atoms: _140  and  _143
REMARK   61  A    between atoms: _143  and  _144
REMARK   62  A    between atoms: _150  and  _152
REMARK   63  A    between atoms: _152  and  _153
REMARK   64  A    between atoms: _152  and  _155
REMARK   65  A    between atoms: _155  and  _156
REMARK   66  A    between atoms: _160  and  _161
REMARK   67  A    between atoms: _166  and  _168
REMARK   68  A    between atoms: _168  and  _169
REMARK   69  A    between atoms: _168  and  _171
REMARK   70  A    between atoms: _174  and  _176
REMARK   71  A    between atoms: _176  and  _177
REMARK   72  A    between atoms: _176  and  _179
REMARK   73  A    between atoms: _179  and  _180
REMARK   74  A    between atoms: _185  and  _187
REMARK   75  A    between atoms: _187  and  _188
REMARK   76  A    between atoms: _187  and  _190
REMARK   77  A    between atoms: _190  and  _191
REMARK   78  A    between atoms: _194  and  _196
REMARK   79  A    between atoms: _196  and  _197
REMARK   80  A    between atoms: _196  and  _199
REMARK   81  A    between atoms: _199  and  _200
REMARK   82  A    between atoms: _203  and  _205
REMARK   83  A    between atoms: _205  and  _206
REMARK   84  A    between atoms: _208  and  _210
REMARK   85  A    between atoms: _210  and  _211
REMARK   86  A    between atoms: _210  and  _213
REMARK   87  A    between atoms: _213  and  _214
REMARK   88  A    between atoms: _214  and  _215
REMARK   89  A    between atoms: _215  and  _216
REMARK   90  A    between atoms: _225  and  _227
REMARK   91  A    between atoms: _227  and  _228
REMARK   92  A    between atoms: _227  and  _230
REMARK   93  A    between atoms: _230  and  _231
REMARK   94  A    between atoms: _231  and  _232
REMARK   95  A    between atoms: _232  and  _233
REMARK   96  A    between atoms: _242  and  _244
REMARK   97  A    between atoms: _244  and  _245
REMARK   98  A    between atoms: _244  and  _247
REMARK   99  A    between atoms: _247  and  _248
REMARK  100  A    between atoms: _251  and  _253
REMARK  101  A    between atoms: _253  and  _254
REMARK  102  A    between atoms: _253  and  _256
REMARK  103  A    between atoms: _256  and  _257
REMARK  104  A    between atoms: _260  and  _262
REMARK  105  A    between atoms: _262  and  _263
REMARK  106  A    between atoms: _262  and  _265
REMARK  107  A    between atoms: _265  and  _266
REMARK  108  A    between atoms: _269  and  _271
REMARK  109  A    between atoms: _271  and  _272
REMARK  110  A    between atoms: _271  and  _274
REMARK  111  A    between atoms: _274  and  _275
REMARK  112  A    between atoms: _278  and  _280
REMARK  113  A    between atoms: _280  and  _281
REMARK  114  A    between atoms: _283  and  _285
REMARK  115  A    between atoms: _285  and  _286
REMARK  116  A    between atoms: _289  and  _291
REMARK  117  A    between atoms: _291  and  _292
REMARK  118  A    between atoms: _291  and  _294
REMARK  119  A    between atoms: _294  and  _295
REMARK  120  A    between atoms: _298  and  _300
REMARK  121  A    between atoms: _300  and  _301
REMARK  122  A    between atoms: _300  and  _303
REMARK  123  A    between atoms: _303  and  _304
REMARK  124  A    between atoms: _307  and  _309
REMARK  125  A    between atoms: _309  and  _310
REMARK  126  A    between atoms: _309  and  _312
REMARK  127  A    between atoms: _312  and  _313
REMARK  128  A    between atoms: _316  and  _318
REMARK  129  A    between atoms: _318  and  _319
REMARK  130  A    between atoms: _318  and  _321
REMARK  131  A    between atoms: _324  and  _326
REMARK  132  A    between atoms: _326  and  _327
REMARK  133  A    between atoms: _326  and  _329
REMARK  134  A    between atoms: _329  and  _330
REMARK  135  A    between atoms: _330  and  _331
REMARK  136  A    between atoms: _331  and  _332
REMARK  137  A    between atoms: _332  and  _333
REMARK  138  A    between atoms: _337  and  _339
REMARK  139  A    between atoms: _339  and  _340
REMARK  140  A    between atoms: _339  and  _342
REMARK  141  A    between atoms: _342  and  _343
REMARK  142  A    between atoms: _343  and  _344
REMARK  143  A    between atoms: _346  and  _348
REMARK  144  A    between atoms: _348  and  _349
REMARK  145  A    between atoms: _348  and  _351
REMARK  146  A    between atoms: _351  and  _352
REMARK  147  A    between atoms: _355  and  _357
REMARK  148  A    between atoms: _357  and  _358
REMARK  149  A    between atoms: _360  and  _362
REMARK  150  A    between atoms: _362  and  _363
REMARK  151  A    between atoms: _365  and  _367
REMARK  152  A    between atoms: _367  and  _368
REMARK  153  A    between atoms: _367  and  _370
REMARK  154  A    between atoms: _370  and  _371
REMARK  155  A    between atoms: _374  and  _376
REMARK  156  A    between atoms: _376  and  _377
REMARK  157  A    between atoms: _379  and  _381
REMARK  158  A    between atoms: _381  and  _382
REMARK  159  A    between atoms: _384  and  _386
REMARK  160  A    between atoms: _386  and  _387
REMARK  161  A    between atoms: _386  and  _389
REMARK  162  A    between atoms: _389  and  _390
REMARK  163  A    between atoms: _393  and  _395
REMARK  164  A    between atoms: _395  and  _396
REMARK  165  A    between atoms: _395  and  _398
REMARK  166  A    between atoms: _401  and  _403
REMARK  167  A    between atoms: _403  and  _404
REMARK  168  A    between atoms: _403  and  _406
REMARK  169  A    between atoms: _406  and  _407
REMARK  170  A    between atoms: _410  and  _412
REMARK  171  A    between atoms: _412  and  _413
REMARK  172  A    between atoms: _412  and  _415
REMARK  173  A    between atoms: _415  and  _416
REMARK  174  A    between atoms: _420  and  _421
REMARK  175  A    between atoms: _426  and  _428
REMARK  176  A    between atoms: _428  and  _429
REMARK  177  A    between atoms: _428  and  _431
REMARK  178  A    between atoms: _434  and  _436
REMARK  179  A    between atoms: _436  and  _437
REMARK  180  A    between atoms: _436  and  _439
REMARK  181  A    between atoms: _439  and  _440
REMARK  182  A    between atoms: _445  and  _447
REMARK  183  A    between atoms: _447  and  _448
REMARK  184  A    between atoms: _447  and  _450
REMARK  185  A    between atoms: _450  and  _451
REMARK  186  A    between atoms: _454  and  _456
REMARK  187  A    between atoms: _456  and  _457
REMARK  188  A    between atoms: _456  and  _459
REMARK  189  A    between atoms: _459  and  _460
REMARK  190  A    between atoms: _463  and  _465
REMARK  191  A    between atoms: _465  and  _466
REMARK  192  A    between atoms: _468  and  _470
REMARK  193  A    between atoms: _470  and  _471
REMARK  194  A    between atoms: _470  and  _473
REMARK  195  A    between atoms: _473  and  _474
REMARK  196  A    between atoms: _474  and  _475
REMARK  197  A    between atoms: _475  and  _476
REMARK  198  A    between atoms: _485  and  _487
REMARK  199  A    between atoms: _487  and  _488
REMARK  200  A    between atoms: _487  and  _490
REMARK  201  A    between atoms: _490  and  _491
REMARK                            x       y       z     vdW  Elec       q    Type
REMARK                         _______ _______ _______ _____ _____    ______ ____
ROOT
ATOM      1  CA  VAL A   1       7.827  38.594  11.864  0.00  0.00    +0.133 C 
ENDROOT
BRANCH   1   2
ATOM      2  CB  VAL A   1       8.565  37.778  12.938  0.00  0.00    +0.023 C 
ATOM      3  CG2 VAL A   1       9.151  38.686  14.048  0.00  0.00    +0.002 C 
ATOM      4  CG1 VAL A   1       9.668  36.965  12.291  0.00  0.00    +0.002 C 
ENDBRANCH   1   2
BRANCH   1   5
ATOM      5  N   VAL A   1       8.738  39.475  11.158  0.00  0.00    -0.239 NA
ATOM      6  H   VAL A   1       9.095  40.320  11.647  0.00  0.00    +0.142 HD
ENDBRANCH   1   5
BRANCH   1   7
ATOM      7  C   VAL A   1       6.678  39.361  12.509  0.00  0.00    +0.224 C 
ATOM      8  O   VAL A   1       6.717  40.585  12.639  0.00  0.00    -0.287 OA
ENDBRANCH   1   7
TORSDOF 3
REMARK  Name = ../refined-set-2016/2qi7/2qi7_pocket.pdb
REMARK  201 active torsions:
REMARK  status: ('A' for Active; 'I' for Inactive)
REMARK    1  A    between atoms: _1  and  _3
REMARK    2  A    between atoms: _3  and  _4
REMARK    3  A    between atoms: _3  and  _6
REMARK    4  A    between atoms: _6  and  _7
REMARK    5  A    between atoms: _7  and  _8
REMARK    6  A    between atoms: _8  and  _9
REMARK    7  A    between atoms: _18  and  _20
REMARK    8  A    between atoms: _20  and  _21
REMARK    9  A    between atoms: _20  and  _23
REMARK   10  A    between atoms: _23  and  _24
REMARK   11  A    between atoms: _27  and  _29
REMARK   12  A    between atoms: _29  and  _30
REMARK   13  A    between atoms: _29  and  _32
REMARK   14  A    between atoms: _32  and  _33
REMARK   15  A    between atoms: _36  and  _38
REMARK   16  A    between atoms: _38  and  _39
REMARK   17  A    between atoms: _38  and  _41
REMARK   18  A    between atoms: _41  and  _42
REMARK   19  A    between atoms: _45  and  _47
REMARK   20  A    between atoms: _47  and  _48
REMARK   21  A    between atoms: _47  and  _50
REMARK   22  A    between atoms: _50  and  _51
REMARK   23  A    between atoms: _54  and  _56
REMARK   24  A    between atoms: _56  and  _57
REMARK   25  A    between atoms: _59  and  _61
REMARK   26  A    between atoms: _61  and  _62
REMARK   27  A    between atoms: _65  and  _67
REMARK   28  A    between atoms: _67  and  _68
REMARK   29  A    between atoms: _67  and  _70
REMARK   30  A    between atoms: _70  and  _71
REMARK   31  A    between atoms: _74  and  _76
REMARK   32  A    between atoms: _76  and  _77
REMARK   33  A    between atoms: _76  and  _79
REMARK   34  A    between atoms: _79  and  _80
REMARK   35  A    between atoms: _83  and  _85
REMARK   36  A    between atoms: _85  and  _86
REMARK   37  A    between atoms: _85  and  _88
REMARK   38  A    between atoms: _88  and  _89
REMARK   39  A    between atoms: _92  and  _94
REMARK   40  A    between atoms: _94  and  _95
REMARK   41  A    between atoms: _94  and  _97
REMARK   42  A    between atoms: _100  and  _102
REMARK   43  A    between atoms: _102  and  _103
REMARK   44  A    between atoms: _102  and  _105
REMARK   45  A    between atoms: _105  and  _106
REMARK   46  A    between atoms: _109  and  _111
REMARK   47  A    between atoms: _111  and  _112
REMARK   48  A    between atoms: _114  and  _116
REMARK   49  A    between atoms: _116  and  _117
REMARK   50  A    between atoms: _119  and  _121
REMARK   51  A    between atoms: _121  and  _122
REMARK   52  A    between atoms: _121  and  _124
REMARK   53  A    between atoms: _124  and  _125
REMARK   54  A    between atoms: _128  and  _130
REMARK   55  A    between atoms: _130  and  _131
REMARK   56  A    between atoms: _133  and  _135
REMARK   57  A    between atoms: _135  and  _136
REMARK   58  A    between atoms: _138  and  _140
REMARK   59  A    between atoms: _140  and  _141
REMARK   60  A    between atoms: _140  and  _143
REMARK   61  A    between atoms: _143  and  _144
REMARK   62  A    between atoms: _150  and  _152
REMARK   63  A    between atoms: _152  and  _153
REMARK   64  A    between atoms: _152  and  _155
REMARK   65  A    between atoms: _155  and  _156
REMARK   66  A    between atoms: _160  and  _161
REMARK   67  A    between atoms: _166  and  _168
REMARK   68  A    between atoms: _168  and  _169
REMARK   69  A    between atoms: _168  and  _171
REMARK   70  A    between atoms: _174  and  _176
REMARK   71  A    between atoms: _176  and  _177
REMARK   72  A    between atoms: _176  and  _179
REMARK   73  A    between atoms: _179  and  _180
REMARK   74  A    between atoms: _185  and  _187
REMARK   75  A    between atoms: _187  and  _188
REMARK   76  A    between atoms: _187  and  _190
REMARK   77  A    between atoms: _190  and  _191
REMARK   78  A    between atoms: _194  and  _196
REMARK   79  A    between atoms: _196  and  _197
REMARK   80  A    between atoms: _196  and  _199
REMARK   81  A    between atoms: _199  and  _200
REMARK   82  A    between atoms: _203  and  _205
REMARK   83  A    between atoms: _205  and  _206
REMARK   84  A    between atoms: _208  and  _210
REMARK   85  A    between atoms: _210  and  _211
REMARK   86  A    between atoms: _210  and  _213
REMARK   87  A    between atoms: _213  and  _214
REMARK   88  A    between atoms: _214  and  _215
REMARK   89  A    between atoms: _215  and  _216
REMARK   90  A    between atoms: _225  and  _227
REMARK   91  A    between atoms: _227  and  _228
REMARK   92  A    between atoms: _227  and  _230
REMARK   93  A    between atoms: _230  and  _231
REMARK   94  A    between atoms: _231  and  _232
REMARK   95  A    between atoms: _232  and  _233
REMARK   96  A    between atoms: _242  and  _244
REMARK   97  A    between atoms: _244  and  _245
REMARK   98  A    between atoms: _244  and  _247
REMARK   99  A    between atoms: _247  and  _248
REMARK  100  A    between atoms: _251  and  _253
REMARK  101  A    between atoms: _253  and  _254
REMARK  102  A    between atoms: _253  and  _256
REMARK  103  A    between atoms: _256  and  _257
REMARK  104  A    between atoms: _260  and  _262
REMARK  105  A    between atoms: _262  and  _263
REMARK  106  A    between atoms: _262  and  _265
REMARK  107  A    between atoms: _265  and  _266
REMARK  108  A    between atoms: _269  and  _271
REMARK  109  A    between atoms: _271  and  _272
REMARK  110  A    between atoms: _271  and  _274
REMARK  111  A    between atoms: _274  and  _275
REMARK  112  A    between atoms: _278  and  _280
REMARK  113  A    between atoms: _280  and  _281
REMARK  114  A    between atoms: _283  and  _285
REMARK  115  A    between atoms: _285  and  _286
REMARK  116  A    between atoms: _289  and  _291
REMARK  117  A    between atoms: _291  and  _292
REMARK  118  A    between atoms: _291  and  _294
REMARK  119  A    between atoms: _294  and  _295
REMARK  120  A    between atoms: _298  and  _300
REMARK  121  A    between atoms: _300  and  _301
REMARK  122  A    between atoms: _300  and  _303
REMARK  123  A    between atoms: _303  and  _304
REMARK  124  A    between atoms: _307  and  _309
REMARK  125  A    between atoms: _309  and  _310
REMARK  126  A    between atoms: _309  and  _312
REMARK  127  A    between atoms: _312  and  _313
REMARK  128  A    between atoms: _316  and  _318
REMARK  129  A    between atoms: _318  and  _319
REMARK  130  A    between atoms: _318  and  _321
REMARK  131  A    between atoms: _324  and  _326
REMARK  132  A    between atoms: _326  and  _327
REMARK  133  A    between atoms: _326  and  _329
REMARK  134  A    between atoms: _329  and  _330
REMARK  135  A    between atoms: _330  and  _331
REMARK  136  A    between atoms: _331  and  _332
REMARK  137  A    between atoms: _332  and  _333
REMARK  138  A    between atoms: _337  and  _339
REMARK  139  A    between atoms: _339  and  _340
REMARK  140  A    between atoms: _339  and  _342
REMARK  141  A    between atoms: _342  and  _343
REMARK  142  A    between atoms: _343  and  _344
REMARK  143  A    between atoms: _346  and  _348
REMARK  144  A    between atoms: _348  and  _349
REMARK  145  A    between atoms: _348  and  _351
REMARK  146  A    between atoms: _351  and  _352
REMARK  147  A    between atoms: _355  and  _357
REMARK  148  A    between atoms: _357  and  _358
REMARK  149  A    between atoms: _360  and  _362
REMARK  150  A    between atoms: _362  and  _363
REMARK  151  A    between atoms: _365  and  _367
REMARK  152  A    between atoms: _367  and  _368
REMARK  153  A    between atoms: _367  and  _370
REMARK  154  A    between atoms: _370  and  _371
REMARK  155  A    between atoms: _374  and  _376
REMARK  156  A    between atoms: _376  and  _377
REMARK  157  A    between atoms: _379  and  _381
REMARK  158  A    between atoms: _381  and  _382
REMARK  159  A    between atoms: _384  and  _386
REMARK  160  A    between atoms: _386  and  _387
REMARK  161  A    between atoms: _386  and  _389
REMARK  162  A    between atoms: _389  and  _390
REMARK  163  A    between atoms: _393  and  _395
REMARK  164  A    between atoms: _395  and  _396
REMARK  165  A    between atoms: _395  and  _398
REMARK  166  A    between atoms: _401  and  _403
REMARK  167  A    between atoms: _403  and  _404
REMARK  168  A    between atoms: _403  and  _406
REMARK  169  A    between atoms: _406  and  _407
REMARK  170  A    between atoms: _410  and  _412
REMARK  171  A    between atoms: _412  and  _413
REMARK  172  A    between atoms: _412  and  _415
REMARK  173  A    between atoms: _415  and  _416
REMARK  174  A    between atoms: _420  and  _421
REMARK  175  A    between atoms: _426  and  _428
REMARK  176  A    between atoms: _428  and  _429
REMARK  177  A    between atoms: _428  and  _431
REMARK  178  A    between atoms: _434  and  _436
REMARK  179  A    between atoms: _436  and  _437
REMARK  180  A    between atoms: _436  and  _439
REMARK  181  A    between atoms: _439  and  _440
REMARK  182  A    between atoms: _445  and  _447
REMARK  183  A    between atoms: _447  and  _448
REMARK  184  A    between atoms: _447  and  _450
REMARK  185  A    between atoms: _450  and  _451
REMARK  186  A    between atoms: _454  and  _456
REMARK  187  A    between atoms: _456  and  _457
REMARK  188  A    between atoms: _456  and  _459
REMARK  189  A    between atoms: _459  and  _460
REMARK  190  A    between atoms: _463  and  _465
REMARK  191  A    between atoms: _465  and  _466
REMARK  192  A    between atoms: _468  and  _470
REMARK  193  A    between atoms: _470  and  _471
REMARK  194  A    between atoms: _470  and  _473
REMARK  195  A    between atoms: _473  and  _474
REMARK  196  A    between atoms: _474  and  _475
REMARK  197  A    between atoms: _475  and  _476
REMARK  198  A    between atoms: _485  and  _487
REMARK  199  A    between atoms: _487  and  _488
REMARK  200  A    between atoms: _487  and  _490
REMARK  201  A    between atoms: _490  and  _491
REMARK                            x       y       z     vdW  Elec       q    Type
REMARK                         _______ _______ _______ _____ _____    ______ ____
ROOT
ATOM      1  CA  LEU A   1       7.017  35.293  16.554  0.00  0.00    +0.133 C 
ENDROOT
BRANCH   1   2
ATOM      2  N   LEU A   1       6.731  34.492  17.724  0.00  0.00    -0.239 NA
ATOM      3  H   LEU A   1       7.439  33.793  18.027  0.00  0.00    +0.142 HD
ENDBRANCH   1   2
BRANCH   1   4
ATOM      4  C   LEU A   1       6.698  34.475  15.322  0.00  0.00    +0.224 C 
ATOM      5  O   LEU A   1       7.178  33.356  15.175  0.00  0.00    -0.287 OA
ENDBRANCH   1   4
BRANCH   1   6
ATOM      6  CB  LEU A   1       8.492  35.688  16.527  0.00  0.00    +0.025 C 
BRANCH   6   7
ATOM      7  CG  LEU A   1       9.009  36.443  17.751  0.00  0.00    +0.002 C 
ATOM      8  CD2 LEU A   1       8.144  37.623  18.090  0.00  0.00    +0.000 C 
ATOM      9  CD1 LEU A   1      10.445  36.876  17.506  0.00  0.00    +0.000 C 
ENDBRANCH   6   7
ENDBRANCH   1   6
TORSDOF 4
REMARK  Name = ../refined-set-2016/2qi7/2qi7_pocket.pdb
REMARK  201 active torsions:
REMARK  status: ('A' for Active; 'I' for Inactive)
REMARK    1  A    between atoms: _1  and  _3
REMARK    2  A    between atoms: _3  and  _4
REMARK    3  A    between atoms: _3  and  _6
REMARK    4  A    between atoms: _6  and  _7
REMARK    5  A    between atoms: _7  and  _8
REMARK    6  A    between atoms: _8  and  _9
REMARK    7  A    between atoms: _18  and  _20
REMARK    8  A    between atoms: _20  and  _21
REMARK    9  A    between atoms: _20  and  _23
REMARK   10  A    between atoms: _23  and  _24
REMARK   11  A    between atoms: _27  and  _29
REMARK   12  A    between atoms: _29  and  _30
REMARK   13  A    between atoms: _29  and  _32
REMARK   14  A    between atoms: _32  and  _33
REMARK   15  A    between atoms: _36  and  _38
REMARK   16  A    between atoms: _38  and  _39
REMARK   17  A    between atoms: _38  and  _41
REMARK   18  A    between atoms: _41  and  _42
REMARK   19  A    between atoms: _45  and  _47
REMARK   20  A    between atoms: _47  and  _48
REMARK   21  A    between atoms: _47  and  _50
REMARK   22  A    between atoms: _50  and  _51
REMARK   23  A    between atoms: _54  and  _56
REMARK   24  A    between atoms: _56  and  _57
REMARK   25  A    between atoms: _59  and  _61
REMARK   26  A    between atoms: _61  and  _62
REMARK   27  A    between atoms: _65  and  _67
REMARK   28  A    between atoms: _67  and  _68
REMARK   29  A    between atoms: _67  and  _70
REMARK   30  A    between atoms: _70  and  _71
REMARK   31  A    between atoms: _74  and  _76
REMARK   32  A    between atoms: _76  and  _77
REMARK   33  A    between atoms: _76  and  _79
REMARK   34  A    between atoms: _79  and  _80
REMARK   35  A    between atoms: _83  and  _85
REMARK   36  A    between atoms: _85  and  _86
REMARK   37  A    between atoms: _85  and  _88
REMARK   38  A    between atoms: _88  and  _89
REMARK   39  A    between atoms: _92  and  _94
REMARK   40  A    between atoms: _94  and  _95
REMARK   41  A    between atoms: _94  and  _97
REMARK   42  A    between atoms: _100  and  _102
REMARK   43  A    between atoms: _102  and  _103
REMARK   44  A    between atoms: _102  and  _105
REMARK   45  A    between atoms: _105  and  _106
REMARK   46  A    between atoms: _109  and  _111
REMARK   47  A    between atoms: _111  and  _112
REMARK   48  A    between atoms: _114  and  _116
REMARK   49  A    between atoms: _116  and  _117
REMARK   50  A    between atoms: _119  and  _121
REMARK   51  A    between atoms: _121  and  _122
REMARK   52  A    between atoms: _121  and  _124
REMARK   53  A    between atoms: _124  and  _125
REMARK   54  A    between atoms: _128  and  _130
REMARK   55  A    between atoms: _130  and  _131
REMARK   56  A    between atoms: _133  and  _135
REMARK   57  A    between atoms: _135  and  _136
REMARK   58  A    between atoms: _138  and  _140
REMARK   59  A    between atoms: _140  and  _141
REMARK   60  A    between atoms: _140  and  _143
REMARK   61  A    between atoms: _143  and  _144
REMARK   62  A    between atoms: _150  and  _152
REMARK   63  A    between atoms: _152  and  _153
REMARK   64  A    between atoms: _152  and  _155
REMARK   65  A    between atoms: _155  and  _156
REMARK   66  A    between atoms: _160  and  _161
REMARK   67  A    between atoms: _166  and  _168
REMARK   68  A    between atoms: _168  and  _169
REMARK   69  A    between atoms: _168  and  _171
REMARK   70  A    between atoms: _174  and  _176
REMARK   71  A    between atoms: _176  and  _177
REMARK   72  A    between atoms: _176  and  _179
REMARK   73  A    between atoms: _179  and  _180
REMARK   74  A    between atoms: _185  and  _187
REMARK   75  A    between atoms: _187  and  _188
REMARK   76  A    between atoms: _187  and  _190
REMARK   77  A    between atoms: _190  and  _191
REMARK   78  A    between atoms: _194  and  _196
REMARK   79  A    between atoms: _196  and  _197
REMARK   80  A    between atoms: _196  and  _199
REMARK   81  A    between atoms: _199  and  _200
REMARK   82  A    between atoms: _203  and  _205
REMARK   83  A    between atoms: _205  and  _206
REMARK   84  A    between atoms: _208  and  _210
REMARK   85  A    between atoms: _210  and  _211
REMARK   86  A    between atoms: _210  and  _213
REMARK   87  A    between atoms: _213  and  _214
REMARK   88  A    between atoms: _214  and  _215
REMARK   89  A    between atoms: _215  and  _216
REMARK   90  A    between atoms: _225  and  _227
REMARK   91  A    between atoms: _227  and  _228
REMARK   92  A    between atoms: _227  and  _230
REMARK   93  A    between atoms: _230  and  _231
REMARK   94  A    between atoms: _231  and  _232
REMARK   95  A    between atoms: _232  and  _233
REMARK   96  A    between atoms: _242  and  _244
REMARK   97  A    between atoms: _244  and  _245
REMARK   98  A    between atoms: _244  and  _247
REMARK   99  A    between atoms: _247  and  _248
REMARK  100  A    between atoms: _251  and  _253
REMARK  101  A    between atoms: _253  and  _254
REMARK  102  A    between atoms: _253  and  _256
REMARK  103  A    between atoms: _256  and  _257
REMARK  104  A    between atoms: _260  and  _262
REMARK  105  A    between atoms: _262  and  _263
REMARK  106  A    between atoms: _262  and  _265
REMARK  107  A    between atoms: _265  and  _266
REMARK  108  A    between atoms: _269  and  _271
REMARK  109  A    between atoms: _271  and  _272
REMARK  110  A    between atoms: _271  and  _274
REMARK  111  A    between atoms: _274  and  _275
REMARK  112  A    between atoms: _278  and  _280
REMARK  113  A    between atoms: _280  and  _281
REMARK  114  A    between atoms: _283  and  _285
REMARK  115  A    between atoms: _285  and  _286
REMARK  116  A    between atoms: _289  and  _291
REMARK  117  A    between atoms: _291  and  _292
REMARK  118  A    between atoms: _291  and  _294
REMARK  119  A    between atoms: _294  and  _295
REMARK  120  A    between atoms: _298  and  _300
REMARK  121  A    between atoms: _300  and  _301
REMARK  122  A    between atoms: _300  and  _303
REMARK  123  A    between atoms: _303  and  _304
REMARK  124  A    between atoms: _307  and  _309
REMARK  125  A    between atoms: _309  and  _310
REMARK  126  A    between atoms: _309  and  _312
REMARK  127  A    between atoms: _312  and  _313
REMARK  128  A    between atoms: _316  and  _318
REMARK  129  A    between atoms: _318  and  _319
REMARK  130  A    between atoms: _318  and  _321
REMARK  131  A    between atoms: _324  and  _326
REMARK  132  A    between atoms: _326  and  _327
REMARK  133  A    between atoms: _326  and  _329
REMARK  134  A    between atoms: _329  and  _330
REMARK  135  A    between atoms: _330  and  _331
REMARK  136  A    between atoms: _331  and  _332
REMARK  137  A    between atoms: _332  and  _333
REMARK  138  A    between atoms: _337  and  _339
REMARK  139  A    between atoms: _339  and  _340
REMARK  140  A    between atoms: _339  and  _342
REMARK  141  A    between atoms: _342  and  _343
REMARK  142  A    between atoms: _343  and  _344
REMARK  143  A    between atoms: _346  and  _348
REMARK  144  A    between atoms: _348  and  _349
REMARK  145  A    between atoms: _348  and  _351
REMARK  146  A    between atoms: _351  and  _352
REMARK  147  A    between atoms: _355  and  _357
REMARK  148  A    between atoms: _357  and  _358
REMARK  149  A    between atoms: _360  and  _362
REMARK  150  A    between atoms: _362  and  _363
REMARK  151  A    between atoms: _365  and  _367
REMARK  152  A    between atoms: _367  and  _368
REMARK  153  A    between atoms: _367  and  _370
REMARK  154  A    between atoms: _370  and  _371
REMARK  155  A    between atoms: _374  and  _376
REMARK  156  A    between atoms: _376  and  _377
REMARK  157  A    between atoms: _379  and  _381
REMARK  158  A    between atoms: _381  and  _382
REMARK  159  A    between atoms: _384  and  _386
REMARK  160  A    between atoms: _386  and  _387
REMARK  161  A    between atoms: _386  and  _389
REMARK  162  A    between atoms: _389  and  _390
REMARK  163  A    between atoms: _393  and  _395
REMARK  164  A    between atoms: _395  and  _396
REMARK  165  A    between atoms: _395  and  _398
REMARK  166  A    between atoms: _401  and  _403
REMARK  167  A    between atoms: _403  and  _404
REMARK  168  A    between atoms: _403  and  _406
REMARK  169  A    between atoms: _406  and  _407
REMARK  170  A    between atoms: _410  and  _412
REMARK  171  A    between atoms: _412  and  _413
REMARK  172  A    between atoms: _412  and  _415
REMARK  173  A    between atoms: _415  and  _416
REMARK  174  A    between atoms: _420  and  _421
REMARK  175  A    between atoms: _426  and  _428
REMARK  176  A    between atoms: _428  and  _429
REMARK  177  A    between atoms: _428  and  _431
REMARK  178  A    between atoms: _434  and  _436
REMARK  179  A    between atoms: _436  and  _437
REMARK  180  A    between atoms: _436  and  _439
REMARK  181  A    between atoms: _439  and  _440
REMARK  182  A    between atoms: _445  and  _447
REMARK  183  A    between atoms: _447  and  _448
REMARK  184  A    between atoms: _447  and  _450
REMARK  185  A    between atoms: _450  and  _451
REMARK  186  A    between atoms: _454  and  _456
REMARK  187  A    between atoms: _456  and  _457
REMARK  188  A    between atoms: _456  and  _459
REMARK  189  A    between atoms: _459  and  _460
REMARK  190  A    between atoms: _463  and  _465
REMARK  191  A    between atoms: _465  and  _466
REMARK  192  A    between atoms: _468  and  _470
REMARK  193  A    between atoms: _470  and  _471
REMARK  194  A    between atoms: _470  and  _473
REMARK  195  A    between atoms: _473  and  _474
REMARK  196  A    between atoms: _474  and  _475
REMARK  197  A    between atoms: _475  and  _476
REMARK  198  A    between atoms: _485  and  _487
REMARK  199  A    between atoms: _487  and  _488
REMARK  200  A    between atoms: _487  and  _490
REMARK  201  A    between atoms: _490  and  _491
REMARK                            x       y       z     vdW  Elec       q    Type
REMARK                         _______ _______ _______ _____ _____    ______ ____
ROOT
ATOM      1  C   ILE A   5      11.527  27.633  18.010  0.00  0.00    +0.241 C 
ATOM      2  N   ILE A   6      11.765  26.739  18.975  0.00  0.00    -0.297 N 
ATOM      3  H   ILE A   6      12.261  25.857  18.736  0.00  0.00    +0.150 HD
ATOM      4  O   ILE A   5      10.815  28.635  18.169  0.00  0.00    -0.273 OA
ENDROOT
BRANCH   2   5
ATOM      5  CA  ILE A   6      11.346  26.968  20.360  0.00  0.00    +0.149 C 
BRANCH   5   6
ATOM      6  C   ILE A   6      12.493  27.626  21.095  0.00  0.00    +0.241 C 
ATOM      7  N   GLY A   7      12.309  28.897  21.448  0.00  0.00    -0.295 N 
ATOM      8  H   GLY A   7      11.381  29.337  21.283  0.00  0.00    +0.150 HD
ATOM      9  O   ILE A   6      13.535  27.009  21.312  0.00  0.00    -0.273 OA
BRANCH   7  10
ATOM     10  CA  GLY A   7      13.366  29.686  22.056  0.00  0.00    +0.176 C 
BRANCH  10  11
ATOM     11  C   GLY A   7      13.313  29.686  23.567  0.00  0.00    +0.243 C 
ATOM     12  O   GLY A   7      12.413  29.092  24.180  0.00  0.00    -0.273 OA
ATOM     13  N   ARG A   8      14.281  30.379  24.167  0.00  0.00    -0.297 N 
ATOM     14  H   ARG A   8      14.933  30.942  23.585  0.00  0.00    +0.150 HD
BRANCH  13  15
ATOM     15  CA  ARG A   8      14.453  30.372  25.616  0.00  0.00    +0.149 C 
BRANCH  15  16
ATOM     16  C   ARG A   8      13.222  30.835  26.383  0.00  0.00    +0.241 C 
ATOM     17  O   ARG A   8      12.953  30.331  27.483  0.00  0.00    -0.273 OA
ATOM     18  N   ASN A   9      12.456  31.770  25.820  0.00  0.00    -0.298 N 
ATOM     19  H   ASN A   9      12.705  32.156  24.887  0.00  0.00    +0.150 HD
BRANCH  18  20
ATOM     20  CA  ASN A   9      11.265  32.250  26.518  0.00  0.00    +0.146 C 
BRANCH  20  21
ATOM     21  C   ASN A   9      10.330  31.107  26.947  0.00  0.00    +0.227 C 
ATOM     22  O   ASN A   9       9.678  31.210  27.979  0.00  0.00    -0.286 OA
ENDBRANCH  20  21
BRANCH  20  23
ATOM     23  CB  ASN A   9      10.498  33.283  25.686  0.00  0.00    +0.112 C 
BRANCH  23  24
ATOM     24  CG  ASN A   9       9.836  32.681  24.453  0.00  0.00    +0.222 C 
ATOM     25  ND2 ASN A   9       8.516  32.898  24.312  0.00  0.00    -0.329 N 
ATOM     26 HD21 ASN A   9       8.000  33.449  25.027  0.00  0.00    +0.145 HD
ATOM     27 HD22 ASN A   9       8.011  32.515  23.488  0.00  0.00    +0.145 HD
ATOM     28  OD1 ASN A   9      10.496  32.036  23.637  0.00  0.00    -0.275 OA
ENDBRANCH  23  24
ENDBRANCH  20  23
ENDBRANCH  18  20
ENDBRANCH  15  16
BRANCH  15  29
ATOM     29  CB  ARG A   8      15.677  31.189  26.026  0.00  0.00    +0.033 C 
BRANCH  29  30
ATOM     30  CG  ARG A   8      17.001  30.573  25.576  0.00  0.00    +0.045 C 
BRANCH  30  31
ATOM     31  CD  ARG A   8      18.233  31.336  26.128  0.00  0.00    +0.174 C 
BRANCH  31  32
ATOM     32  NE  ARG A   8      18.268  32.735  25.689  0.00  0.00    -0.265 N 
ATOM     33  CZ  ARG A   8      17.852  33.787  26.408  0.00  0.00    +0.342 C 
ATOM     34  NH2 ARG A   8      17.358  33.658  27.628  0.00  0.00    -0.292 N 
ATOM     35 HH21 ARG A   8      17.046  34.499  28.154  0.00  0.00    +0.255 HD
ATOM     36 HH22 ARG A   8      17.282  32.716  28.061  0.00  0.00    +0.255 HD
ATOM     37  NH1 ARG A   8      17.917  34.995  25.884  0.00  0.00    -0.292 N 
ATOM     38 HH11 ARG A   8      17.597  35.818  26.433  0.00  0.00    +0.255 HD
ATOM     39 HH12 ARG A   8      18.288  35.125  24.921  0.00  0.00    +0.255 HD
ATOM     40  HE  ARG A   8      18.648  32.927  24.740  0.00  0.00    +0.259 HD
ENDBRANCH  31  32
ENDBRANCH  30  31
ENDBRANCH  29  30
ENDBRANCH  15  29
ENDBRANCH  13  15
ENDBRANCH  10  11
ENDBRANCH   7  10
ENDBRANCH   5   6
BRANCH   5  41
ATOM     41  CB  ILE A   6      10.935  25.665  21.081  0.00  0.00    +0.027 C 
ATOM     42  CG2 ILE A   6      10.502  25.957  22.533  0.00  0.00    +0.002 C 
BRANCH  41  43
ATOM     43  CG1 ILE A   6       9.799  24.966  20.324  0.00  0.00    +0.002 C 
ATOM     44  CD1 ILE A   6       8.555  25.820  20.108  0.00  0.00    +0.000 C 
ENDBRANCH  41  43
ENDBRANCH   5  41
ENDBRANCH   2   5
BRANCH   1  45
ATOM     45  CA  ILE A   5      12.167  27.360  16.649  0.00  0.00    +0.149 C 
BRANCH  45  47
ATOM     46  C   ASN A   4      11.036  26.085  14.864  0.00  0.00    +0.241 C 
ATOM     47  N   ILE A   5      11.125  27.160  15.645  0.00  0.00    -0.297 N 
ATOM     48  H   ILE A   5      10.407  27.904  15.533  0.00  0.00    +0.150 HD
ATOM     49  O   ASN A   4      11.747  25.084  15.002  0.00  0.00    -0.273 OA
BRANCH  46  50
ATOM     50  CA  ASN A   4       9.993  26.158  13.731  0.00  0.00    +0.158 C 
BRANCH  50  52
ATOM     51  C   VAL A   3      11.515  26.536  11.866  0.00  0.00    +0.241 C 
ATOM     52  N   ASN A   4      10.652  25.738  12.492  0.00  0.00    -0.297 N 
ATOM     53  H   ASN A   4      10.442  24.800  12.094  0.00  0.00    +0.150 HD
ATOM     54  O   VAL A   3      11.708  27.710  12.201  0.00  0.00    -0.273 OA
BRANCH  51  55
ATOM     55  CA  VAL A   3      12.267  25.936  10.680  0.00  0.00    +0.149 C 
BRANCH  55  57
ATOM     56  C   PRO A   2      12.372  26.682   8.349  0.00  0.00    +0.241 C 
ATOM     57  N   VAL A   3      12.469  26.948   9.648  0.00  0.00    -0.297 N 
ATOM     58  H   VAL A   3      12.699  27.919   9.941  0.00  0.00    +0.150 HD
ATOM     59  O   PRO A   2      12.085  25.573   7.902  0.00  0.00    -0.273 OA
BRANCH  56  66
ATOM     60  C   THR A   1      11.429  29.711   8.323  0.00  0.00    +0.244 C 
ATOM     61  O   THR A   1      10.352  29.153   8.085  0.00  0.00    -0.273 OA
ATOM     62  N   PRO A   2      12.608  29.174   7.970  0.00  0.00    -0.272 N 
ATOM     63  CD  PRO A   2      13.943  29.784   8.082  0.00  0.00    +0.094 C 
ATOM     64  CG  PRO A   2      14.871  28.696   7.636  0.00  0.00    +0.024 C 
ATOM     65  CB  PRO A   2      14.099  27.724   6.865  0.00  0.00    +0.031 C 
ATOM     66  CA  PRO A   2      12.660  27.833   7.384  0.00  0.00    +0.152 C 
BRANCH  60  67
ATOM     67  CA  THR A   1      11.461  31.073   9.035  0.00  0.00    +0.172 C 
BRANCH  67  68
ATOM     68  N   THR A   1      10.335  31.866   8.594  0.00  0.00    -0.236 NA
ATOM     69  H   THR A   1       9.478  31.900   9.182  0.00  0.00    +0.142 HD
ENDBRANCH  67  68
BRANCH  67  70
ATOM     70  CB  THR A   1      11.478  30.883  10.571  0.00  0.00    +0.135 C 
ATOM     71  CG2 THR A   1      10.140  30.327  11.094  0.00  0.00    +0.034 C 
BRANCH  70  72
ATOM     72  OG1 THR A   1      12.539  29.994  10.921  0.00  0.00    -0.383 OA
ATOM     73  HG1 THR A   1      12.395  29.120  10.479  0.00  0.00    +0.210 HD
ENDBRANCH  70  72
ENDBRANCH  67  70
ENDBRANCH  60  67
ENDBRANCH  56  66
ENDBRANCH  55  57
BRANCH  55  74
ATOM     74  CB  VAL A   3      13.623  25.345  11.162  0.00  0.00    +0.027 C 
ATOM     75  CG2 VAL A   3      14.617  26.454  11.549  0.00  0.00    +0.002 C 
ATOM     76  CG1 VAL A   3      14.218  24.446  10.100  0.00  0.00    +0.002 C 
ENDBRANCH  55  74
ENDBRANCH  51  55
ENDBRANCH  50  52
BRANCH  50  77
ATOM     77  CB  ASN A   4       8.786  25.280  14.073  0.00  0.00    +0.114 C 
BRANCH  77  78
ATOM     78  CG  ASN A   4       7.633  25.435  13.097  0.00  0.00    +0.222 C 
ATOM     79  OD1 ASN A   4       7.120  26.536  12.882  0.00  0.00    -0.275 OA
ATOM     80  ND2 ASN A   4       7.188  24.319  12.537  0.00  0.00    -0.329 N 
ATOM     81 HD21 ASN A   4       7.651  23.412  12.747  0.00  0.00    +0.145 HD
ATOM     82 HD22 ASN A   4       6.376  24.351  11.888  0.00  0.00    +0.145 HD
ENDBRANCH  77  78
ENDBRANCH  50  77
ENDBRANCH  46  50
ENDBRANCH  45  47
BRANCH  45  83
ATOM     83  CB  ILE A   5      13.072  28.551  16.263  0.00  0.00    +0.027 C 
ATOM     84  CG2 ILE A   5      14.057  28.931  17.391  0.00  0.00    +0.002 C 
BRANCH  83  85
ATOM     85  CG1 ILE A   5      13.871  28.216  14.999  0.00  0.00    +0.002 C 
ATOM     86  CD1 ILE A   5      14.411  29.413  14.309  0.00  0.00    +0.000 C 
ENDBRANCH  83  85
ENDBRANCH  45  83
ENDBRANCH   1  45
TORSDOF 32
REMARK  Name = ../refined-set-2016/2qi7/2qi7_pocket.pdb
REMARK  201 active torsions:
REMARK  status: ('A' for Active; 'I' for Inactive)
REMARK    1  A    between atoms: _1  and  _3
REMARK    2  A    between atoms: _3  and  _4
REMARK    3  A    between atoms: _3  and  _6
REMARK    4  A    between atoms: _6  and  _7
REMARK    5  A    between atoms: _7  and  _8
REMARK    6  A    between atoms: _8  and  _9
REMARK    7  A    between atoms: _18  and  _20
REMARK    8  A    between atoms: _20  and  _21
REMARK    9  A    between atoms: _20  and  _23
REMARK   10  A    between atoms: _23  and  _24
REMARK   11  A    between atoms: _27  and  _29
REMARK   12  A    between atoms: _29  and  _30
REMARK   13  A    between atoms: _29  and  _32
REMARK   14  A    between atoms: _32  and  _33
REMARK   15  A    between atoms: _36  and  _38
REMARK   16  A    between atoms: _38  and  _39
REMARK   17  A    between atoms: _38  and  _41
REMARK   18  A    between atoms: _41  and  _42
REMARK   19  A    between atoms: _45  and  _47
REMARK   20  A    between atoms: _47  and  _48
REMARK   21  A    between atoms: _47  and  _50
REMARK   22  A    between atoms: _50  and  _51
REMARK   23  A    between atoms: _54  and  _56
REMARK   24  A    between atoms: _56  and  _57
REMARK   25  A    between atoms: _59  and  _61
REMARK   26  A    between atoms: _61  and  _62
REMARK   27  A    between atoms: _65  and  _67
REMARK   28  A    between atoms: _67  and  _68
REMARK   29  A    between atoms: _67  and  _70
REMARK   30  A    between atoms: _70  and  _71
REMARK   31  A    between atoms: _74  and  _76
REMARK   32  A    between atoms: _76  and  _77
REMARK   33  A    between atoms: _76  and  _79
REMARK   34  A    between atoms: _79  and  _80
REMARK   35  A    between atoms: _83  and  _85
REMARK   36  A    between atoms: _85  and  _86
REMARK   37  A    between atoms: _85  and  _88
REMARK   38  A    between atoms: _88  and  _89
REMARK   39  A    between atoms: _92  and  _94
REMARK   40  A    between atoms: _94  and  _95
REMARK   41  A    between atoms: _94  and  _97
REMARK   42  A    between atoms: _100  and  _102
REMARK   43  A    between atoms: _102  and  _103
REMARK   44  A    between atoms: _102  and  _105
REMARK   45  A    between atoms: _105  and  _106
REMARK   46  A    between atoms: _109  and  _111
REMARK   47  A    between atoms: _111  and  _112
REMARK   48  A    between atoms: _114  and  _116
REMARK   49  A    between atoms: _116  and  _117
REMARK   50  A    between atoms: _119  and  _121
REMARK   51  A    between atoms: _121  and  _122
REMARK   52  A    between atoms: _121  and  _124
REMARK   53  A    between atoms: _124  and  _125
REMARK   54  A    between atoms: _128  and  _130
REMARK   55  A    between atoms: _130  and  _131
REMARK   56  A    between atoms: _133  and  _135
REMARK   57  A    between atoms: _135  and  _136
REMARK   58  A    between atoms: _138  and  _140
REMARK   59  A    between atoms: _140  and  _141
REMARK   60  A    between atoms: _140  and  _143
REMARK   61  A    between atoms: _143  and  _144
REMARK   62  A    between atoms: _150  and  _152
REMARK   63  A    between atoms: _152  and  _153
REMARK   64  A    between atoms: _152  and  _155
REMARK   65  A    between atoms: _155  and  _156
REMARK   66  A    between atoms: _160  and  _161
REMARK   67  A    between atoms: _166  and  _168
REMARK   68  A    between atoms: _168  and  _169
REMARK   69  A    between atoms: _168  and  _171
REMARK   70  A    between atoms: _174  and  _176
REMARK   71  A    between atoms: _176  and  _177
REMARK   72  A    between atoms: _176  and  _179
REMARK   73  A    between atoms: _179  and  _180
REMARK   74  A    between atoms: _185  and  _187
REMARK   75  A    between atoms: _187  and  _188
REMARK   76  A    between atoms: _187  and  _190
REMARK   77  A    between atoms: _190  and  _191
REMARK   78  A    between atoms: _194  and  _196
REMARK   79  A    between atoms: _196  and  _197
REMARK   80  A    between atoms: _196  and  _199
REMARK   81  A    between atoms: _199  and  _200
REMARK   82  A    between atoms: _203  and  _205
REMARK   83  A    between atoms: _205  and  _206
REMARK   84  A    between atoms: _208  and  _210
REMARK   85  A    between atoms: _210  and  _211
REMARK   86  A    between atoms: _210  and  _213
REMARK   87  A    between atoms: _213  and  _214
REMARK   88  A    between atoms: _214  and  _215
REMARK   89  A    between atoms: _215  and  _216
REMARK   90  A    between atoms: _225  and  _227
REMARK   91  A    between atoms: _227  and  _228
REMARK   92  A    between atoms: _227  and  _230
REMARK   93  A    between atoms: _230  and  _231
REMARK   94  A    between atoms: _231  and  _232
REMARK   95  A    between atoms: _232  and  _233
REMARK   96  A    between atoms: _242  and  _244
REMARK   97  A    between atoms: _244  and  _245
REMARK   98  A    between atoms: _244  and  _247
REMARK   99  A    between atoms: _247  and  _248
REMARK  100  A    between atoms: _251  and  _253
REMARK  101  A    between atoms: _253  and  _254
REMARK  102  A    between atoms: _253  and  _256
REMARK  103  A    between atoms: _256  and  _257
REMARK  104  A    between atoms: _260  and  _262
REMARK  105  A    between atoms: _262  and  _263
REMARK  106  A    between atoms: _262  and  _265
REMARK  107  A    between atoms: _265  and  _266
REMARK  108  A    between atoms: _269  and  _271
REMARK  109  A    between atoms: _271  and  _272
REMARK  110  A    between atoms: _271  and  _274
REMARK  111  A    between atoms: _274  and  _275
REMARK  112  A    between atoms: _278  and  _280
REMARK  113  A    between atoms: _280  and  _281
REMARK  114  A    between atoms: _283  and  _285
REMARK  115  A    between atoms: _285  and  _286
REMARK  116  A    between atoms: _289  and  _291
REMARK  117  A    between atoms: _291  and  _292
REMARK  118  A    between atoms: _291  and  _294
REMARK  119  A    between atoms: _294  and  _295
REMARK  120  A    between atoms: _298  and  _300
REMARK  121  A    between atoms: _300  and  _301
REMARK  122  A    between atoms: _300  and  _303
REMARK  123  A    between atoms: _303  and  _304
REMARK  124  A    between atoms: _307  and  _309
REMARK  125  A    between atoms: _309  and  _310
REMARK  126  A    between atoms: _309  and  _312
REMARK  127  A    between atoms: _312  and  _313
REMARK  128  A    between atoms: _316  and  _318
REMARK  129  A    between atoms: _318  and  _319
REMARK  130  A    between atoms: _318  and  _321
REMARK  131  A    between atoms: _324  and  _326
REMARK  132  A    between atoms: _326  and  _327
REMARK  133  A    between atoms: _326  and  _329
REMARK  134  A    between atoms: _329  and  _330
REMARK  135  A    between atoms: _330  and  _331
REMARK  136  A    between atoms: _331  and  _332
REMARK  137  A    between atoms: _332  and  _333
REMARK  138  A    between atoms: _337  and  _339
REMARK  139  A    between atoms: _339  and  _340
REMARK  140  A    between atoms: _339  and  _342
REMARK  141  A    between atoms: _342  and  _343
REMARK  142  A    between atoms: _343  and  _344
REMARK  143  A    between atoms: _346  and  _348
REMARK  144  A    between atoms: _348  and  _349
REMARK  145  A    between atoms: _348  and  _351
REMARK  146  A    between atoms: _351  and  _352
REMARK  147  A    between atoms: _355  and  _357
REMARK  148  A    between atoms: _357  and  _358
REMARK  149  A    between atoms: _360  and  _362
REMARK  150  A    between atoms: _362  and  _363
REMARK  151  A    between atoms: _365  and  _367
REMARK  152  A    between atoms: _367  and  _368
REMARK  153  A    between atoms: _367  and  _370
REMARK  154  A    between atoms: _370  and  _371
REMARK  155  A    between atoms: _374  and  _376
REMARK  156  A    between atoms: _376  and  _377
REMARK  157  A    between atoms: _379  and  _381
REMARK  158  A    between atoms: _381  and  _382
REMARK  159  A    between atoms: _384  and  _386
REMARK  160  A    between atoms: _386  and  _387
REMARK  161  A    between atoms: _386  and  _389
REMARK  162  A    between atoms: _389  and  _390
REMARK  163  A    between atoms: _393  and  _395
REMARK  164  A    between atoms: _395  and  _396
REMARK  165  A    between atoms: _395  and  _398
REMARK  166  A    between atoms: _401  and  _403
REMARK  167  A    between atoms: _403  and  _404
REMARK  168  A    between atoms: _403  and  _406
REMARK  169  A    between atoms: _406  and  _407
REMARK  170  A    between atoms: _410  and  _412
REMARK  171  A    between atoms: _412  and  _413
REMARK  172  A    between atoms: _412  and  _415
REMARK  173  A    between atoms: _415  and  _416
REMARK  174  A    between atoms: _420  and  _421
REMARK  175  A    between atoms: _426  and  _428
REMARK  176  A    between atoms: _428  and  _429
REMARK  177  A    between atoms: _428  and  _431
REMARK  178  A    between atoms: _434  and  _436
REMARK  179  A    between atoms: _436  and  _437
REMARK  180  A    between atoms: _436  and  _439
REMARK  181  A    between atoms: _439  and  _440
REMARK  182  A    between atoms: _445  and  _447
REMARK  183  A    between atoms: _447  and  _448
REMARK  184  A    between atoms: _447  and  _450
REMARK  185  A    between atoms: _450  and  _451
REMARK  186  A    between atoms: _454  and  _456
REMARK  187  A    between atoms: _456  and  _457
REMARK  188  A    between atoms: _456  and  _459
REMARK  189  A    between atoms: _459  and  _460
REMARK  190  A    between atoms: _463  and  _465
REMARK  191  A    between atoms: _465  and  _466
REMARK  192  A    between atoms: _468  and  _470
REMARK  193  A    between atoms: _470  and  _471
REMARK  194  A    between atoms: _470  and  _473
REMARK  195  A    between atoms: _473  and  _474
REMARK  196  A    between atoms: _474  and  _475
REMARK  197  A    between atoms: _475  and  _476
REMARK  198  A    between atoms: _485  and  _487
REMARK  199  A    between atoms: _487  and  _488
REMARK  200  A    between atoms: _487  and  _490
REMARK  201  A    between atoms: _490  and  _491
REMARK                            x       y       z     vdW  Elec       q    Type
REMARK                         _______ _______ _______ _____ _____    ______ ____
ROOT
ATOM      1  O   HOH     1      20.245  21.701  15.477  0.00  0.00    +0.000 OA
ENDROOT
TORSDOF 0
REMARK  Name = ../refined-set-2016/2qi7/2qi7_pocket.pdb
REMARK  201 active torsions:
REMARK  status: ('A' for Active; 'I' for Inactive)
REMARK    1  A    between atoms: _1  and  _3
REMARK    2  A    between atoms: _3  and  _4
REMARK    3  A    between atoms: _3  and  _6
REMARK    4  A    between atoms: _6  and  _7
REMARK    5  A    between atoms: _7  and  _8
REMARK    6  A    between atoms: _8  and  _9
REMARK    7  A    between atoms: _18  and  _20
REMARK    8  A    between atoms: _20  and  _21
REMARK    9  A    between atoms: _20  and  _23
REMARK   10  A    between atoms: _23  and  _24
REMARK   11  A    between atoms: _27  and  _29
REMARK   12  A    between atoms: _29  and  _30
REMARK   13  A    between atoms: _29  and  _32
REMARK   14  A    between atoms: _32  and  _33
REMARK   15  A    between atoms: _36  and  _38
REMARK   16  A    between atoms: _38  and  _39
REMARK   17  A    between atoms: _38  and  _41
REMARK   18  A    between atoms: _41  and  _42
REMARK   19  A    between atoms: _45  and  _47
REMARK   20  A    between atoms: _47  and  _48
REMARK   21  A    between atoms: _47  and  _50
REMARK   22  A    between atoms: _50  and  _51
REMARK   23  A    between atoms: _54  and  _56
REMARK   24  A    between atoms: _56  and  _57
REMARK   25  A    between atoms: _59  and  _61
REMARK   26  A    between atoms: _61  and  _62
REMARK   27  A    between atoms: _65  and  _67
REMARK   28  A    between atoms: _67  and  _68
REMARK   29  A    between atoms: _67  and  _70
REMARK   30  A    between atoms: _70  and  _71
REMARK   31  A    between atoms: _74  and  _76
REMARK   32  A    between atoms: _76  and  _77
REMARK   33  A    between atoms: _76  and  _79
REMARK   34  A    between atoms: _79  and  _80
REMARK   35  A    between atoms: _83  and  _85
REMARK   36  A    between atoms: _85  and  _86
REMARK   37  A    between atoms: _85  and  _88
REMARK   38  A    between atoms: _88  and  _89
REMARK   39  A    between atoms: _92  and  _94
REMARK   40  A    between atoms: _94  and  _95
REMARK   41  A    between atoms: _94  and  _97
REMARK   42  A    between atoms: _100  and  _102
REMARK   43  A    between atoms: _102  and  _103
REMARK   44  A    between atoms: _102  and  _105
REMARK   45  A    between atoms: _105  and  _106
REMARK   46  A    between atoms: _109  and  _111
REMARK   47  A    between atoms: _111  and  _112
REMARK   48  A    between atoms: _114  and  _116
REMARK   49  A    between atoms: _116  and  _117
REMARK   50  A    between atoms: _119  and  _121
REMARK   51  A    between atoms: _121  and  _122
REMARK   52  A    between atoms: _121  and  _124
REMARK   53  A    between atoms: _124  and  _125
REMARK   54  A    between atoms: _128  and  _130
REMARK   55  A    between atoms: _130  and  _131
REMARK   56  A    between atoms: _133  and  _135
REMARK   57  A    between atoms: _135  and  _136
REMARK   58  A    between atoms: _138  and  _140
REMARK   59  A    between atoms: _140  and  _141
REMARK   60  A    between atoms: _140  and  _143
REMARK   61  A    between atoms: _143  and  _144
REMARK   62  A    between atoms: _150  and  _152
REMARK   63  A    between atoms: _152  and  _153
REMARK   64  A    between atoms: _152  and  _155
REMARK   65  A    between atoms: _155  and  _156
REMARK   66  A    between atoms: _160  and  _161
REMARK   67  A    between atoms: _166  and  _168
REMARK   68  A    between atoms: _168  and  _169
REMARK   69  A    between atoms: _168  and  _171
REMARK   70  A    between atoms: _174  and  _176
REMARK   71  A    between atoms: _176  and  _177
REMARK   72  A    between atoms: _176  and  _179
REMARK   73  A    between atoms: _179  and  _180
REMARK   74  A    between atoms: _185  and  _187
REMARK   75  A    between atoms: _187  and  _188
REMARK   76  A    between atoms: _187  and  _190
REMARK   77  A    between atoms: _190  and  _191
REMARK   78  A    between atoms: _194  and  _196
REMARK   79  A    between atoms: _196  and  _197
REMARK   80  A    between atoms: _196  and  _199
REMARK   81  A    between atoms: _199  and  _200
REMARK   82  A    between atoms: _203  and  _205
REMARK   83  A    between atoms: _205  and  _206
REMARK   84  A    between atoms: _208  and  _210
REMARK   85  A    between atoms: _210  and  _211
REMARK   86  A    between atoms: _210  and  _213
REMARK   87  A    between atoms: _213  and  _214
REMARK   88  A    between atoms: _214  and  _215
REMARK   89  A    between atoms: _215  and  _216
REMARK   90  A    between atoms: _225  and  _227
REMARK   91  A    between atoms: _227  and  _228
REMARK   92  A    between atoms: _227  and  _230
REMARK   93  A    between atoms: _230  and  _231
REMARK   94  A    between atoms: _231  and  _232
REMARK   95  A    between atoms: _232  and  _233
REMARK   96  A    between atoms: _242  and  _244
REMARK   97  A    between atoms: _244  and  _245
REMARK   98  A    between atoms: _244  and  _247
REMARK   99  A    between atoms: _247  and  _248
REMARK  100  A    between atoms: _251  and  _253
REMARK  101  A    between atoms: _253  and  _254
REMARK  102  A    between atoms: _253  and  _256
REMARK  103  A    between atoms: _256  and  _257
REMARK  104  A    between atoms: _260  and  _262
REMARK  105  A    between atoms: _262  and  _263
REMARK  106  A    between atoms: _262  and  _265
REMARK  107  A    between atoms: _265  and  _266
REMARK  108  A    between atoms: _269  and  _271
REMARK  109  A    between atoms: _271  and  _272
REMARK  110  A    between atoms: _271  and  _274
REMARK  111  A    between atoms: _274  and  _275
REMARK  112  A    between atoms: _278  and  _280
REMARK  113  A    between atoms: _280  and  _281
REMARK  114  A    between atoms: _283  and  _285
REMARK  115  A    between atoms: _285  and  _286
REMARK  116  A    between atoms: _289  and  _291
REMARK  117  A    between atoms: _291  and  _292
REMARK  118  A    between atoms: _291  and  _294
REMARK  119  A    between atoms: _294  and  _295
REMARK  120  A    between atoms: _298  and  _300
REMARK  121  A    between atoms: _300  and  _301
REMARK  122  A    between atoms: _300  and  _303
REMARK  123  A    between atoms: _303  and  _304
REMARK  124  A    between atoms: _307  and  _309
REMARK  125  A    between atoms: _309  and  _310
REMARK  126  A    between atoms: _309  and  _312
REMARK  127  A    between atoms: _312  and  _313
REMARK  128  A    between atoms: _316  and  _318
REMARK  129  A    between atoms: _318  and  _319
REMARK  130  A    between atoms: _318  and  _321
REMARK  131  A    between atoms: _324  and  _326
REMARK  132  A    between atoms: _326  and  _327
REMARK  133  A    between atoms: _326  and  _329
REMARK  134  A    between atoms: _329  and  _330
REMARK  135  A    between atoms: _330  and  _331
REMARK  136  A    between atoms: _331  and  _332
REMARK  137  A    between atoms: _332  and  _333
REMARK  138  A    between atoms: _337  and  _339
REMARK  139  A    between atoms: _339  and  _340
REMARK  140  A    between atoms: _339  and  _342
REMARK  141  A    between atoms: _342  and  _343
REMARK  142  A    between atoms: _343  and  _344
REMARK  143  A    between atoms: _346  and  _348
REMARK  144  A    between atoms: _348  and  _349
REMARK  145  A    between atoms: _348  and  _351
REMARK  146  A    between atoms: _351  and  _352
REMARK  147  A    between atoms: _355  and  _357
REMARK  148  A    between atoms: _357  and  _358
REMARK  149  A    between atoms: _360  and  _362
REMARK  150  A    between atoms: _362  and  _363
REMARK  151  A    between atoms: _365  and  _367
REMARK  152  A    between atoms: _367  and  _368
REMARK  153  A    between atoms: _367  and  _370
REMARK  154  A    between atoms: _370  and  _371
REMARK  155  A    between atoms: _374  and  _376
REMARK  156  A    between atoms: _376  and  _377
REMARK  157  A    between atoms: _379  and  _381
REMARK  158  A    between atoms: _381  and  _382
REMARK  159  A    between atoms: _384  and  _386
REMARK  160  A    between atoms: _386  and  _387
REMARK  161  A    between atoms: _386  and  _389
REMARK  162  A    between atoms: _389  and  _390
REMARK  163  A    between atoms: _393  and  _395
REMARK  164  A    between atoms: _395  and  _396
REMARK  165  A    between atoms: _395  and  _398
REMARK  166  A    between atoms: _401  and  _403
REMARK  167  A    between atoms: _403  and  _404
REMARK  168  A    between atoms: _403  and  _406
REMARK  169  A    between atoms: _406  and  _407
REMARK  170  A    between atoms: _410  and  _412
REMARK  171  A    between atoms: _412  and  _413
REMARK  172  A    between atoms: _412  and  _415
REMARK  173  A    between atoms: _415  and  _416
REMARK  174  A    between atoms: _420  and  _421
REMARK  175  A    between atoms: _426  and  _428
REMARK  176  A    between atoms: _428  and  _429
REMARK  177  A    between atoms: _428  and  _431
REMARK  178  A    between atoms: _434  and  _436
REMARK  179  A    between atoms: _436  and  _437
REMARK  180  A    between atoms: _436  and  _439
REMARK  181  A    between atoms: _439  and  _440
REMARK  182  A    between atoms: _445  and  _447
REMARK  183  A    between atoms: _447  and  _448
REMARK  184  A    between atoms: _447  and  _450
REMARK  185  A    between atoms: _450  and  _451
REMARK  186  A    between atoms: _454  and  _456
REMARK  187  A    between atoms: _456  and  _457
REMARK  188  A    between atoms: _456  and  _459
REMARK  189  A    between atoms: _459  and  _460
REMARK  190  A    between atoms: _463  and  _465
REMARK  191  A    between atoms: _465  and  _466
REMARK  192  A    between atoms: _468  and  _470
REMARK  193  A    between atoms: _470  and  _471
REMARK  194  A    between atoms: _470  and  _473
REMARK  195  A    between atoms: _473  and  _474
REMARK  196  A    between atoms: _474  and  _475
REMARK  197  A    between atoms: _475  and  _476
REMARK  198  A    between atoms: _485  and  _487
REMARK  199  A    between atoms: _487  and  _488
REMARK  200  A    between atoms: _487  and  _490
REMARK  201  A    between atoms: _490  and  _491
REMARK                            x       y       z     vdW  Elec       q    Type
REMARK                         _______ _______ _______ _____ _____    ______ ____
ROOT
ATOM      1  O   HOH     1      19.528  23.146  13.049  0.00  0.00    +0.000 OA
ENDROOT
TORSDOF 0
REMARK  Name = ../refined-set-2016/2qi7/2qi7_pocket.pdb
REMARK  201 active torsions:
REMARK  status: ('A' for Active; 'I' for Inactive)
REMARK    1  A    between atoms: _1  and  _3
REMARK    2  A    between atoms: _3  and  _4
REMARK    3  A    between atoms: _3  and  _6
REMARK    4  A    between atoms: _6  and  _7
REMARK    5  A    between atoms: _7  and  _8
REMARK    6  A    between atoms: _8  and  _9
REMARK    7  A    between atoms: _18  and  _20
REMARK    8  A    between atoms: _20  and  _21
REMARK    9  A    between atoms: _20  and  _23
REMARK   10  A    between atoms: _23  and  _24
REMARK   11  A    between atoms: _27  and  _29
REMARK   12  A    between atoms: _29  and  _30
REMARK   13  A    between atoms: _29  and  _32
REMARK   14  A    between atoms: _32  and  _33
REMARK   15  A    between atoms: _36  and  _38
REMARK   16  A    between atoms: _38  and  _39
REMARK   17  A    between atoms: _38  and  _41
REMARK   18  A    between atoms: _41  and  _42
REMARK   19  A    between atoms: _45  and  _47
REMARK   20  A    between atoms: _47  and  _48
REMARK   21  A    between atoms: _47  and  _50
REMARK   22  A    between atoms: _50  and  _51
REMARK   23  A    between atoms: _54  and  _56
REMARK   24  A    between atoms: _56  and  _57
REMARK   25  A    between atoms: _59  and  _61
REMARK   26  A    between atoms: _61  and  _62
REMARK   27  A    between atoms: _65  and  _67
REMARK   28  A    between atoms: _67  and  _68
REMARK   29  A    between atoms: _67  and  _70
REMARK   30  A    between atoms: _70  and  _71
REMARK   31  A    between atoms: _74  and  _76
REMARK   32  A    between atoms: _76  and  _77
REMARK   33  A    between atoms: _76  and  _79
REMARK   34  A    between atoms: _79  and  _80
REMARK   35  A    between atoms: _83  and  _85
REMARK   36  A    between atoms: _85  and  _86
REMARK   37  A    between atoms: _85  and  _88
REMARK   38  A    between atoms: _88  and  _89
REMARK   39  A    between atoms: _92  and  _94
REMARK   40  A    between atoms: _94  and  _95
REMARK   41  A    between atoms: _94  and  _97
REMARK   42  A    between atoms: _100  and  _102
REMARK   43  A    between atoms: _102  and  _103
REMARK   44  A    between atoms: _102  and  _105
REMARK   45  A    between atoms: _105  and  _106
REMARK   46  A    between atoms: _109  and  _111
REMARK   47  A    between atoms: _111  and  _112
REMARK   48  A    between atoms: _114  and  _116
REMARK   49  A    between atoms: _116  and  _117
REMARK   50  A    between atoms: _119  and  _121
REMARK   51  A    between atoms: _121  and  _122
REMARK   52  A    between atoms: _121  and  _124
REMARK   53  A    between atoms: _124  and  _125
REMARK   54  A    between atoms: _128  and  _130
REMARK   55  A    between atoms: _130  and  _131
REMARK   56  A    between atoms: _133  and  _135
REMARK   57  A    between atoms: _135  and  _136
REMARK   58  A    between atoms: _138  and  _140
REMARK   59  A    between atoms: _140  and  _141
REMARK   60  A    between atoms: _140  and  _143
REMARK   61  A    between atoms: _143  and  _144
REMARK   62  A    between atoms: _150  and  _152
REMARK   63  A    between atoms: _152  and  _153
REMARK   64  A    between atoms: _152  and  _155
REMARK   65  A    between atoms: _155  and  _156
REMARK   66  A    between atoms: _160  and  _161
REMARK   67  A    between atoms: _166  and  _168
REMARK   68  A    between atoms: _168  and  _169
REMARK   69  A    between atoms: _168  and  _171
REMARK   70  A    between atoms: _174  and  _176
REMARK   71  A    between atoms: _176  and  _177
REMARK   72  A    between atoms: _176  and  _179
REMARK   73  A    between atoms: _179  and  _180
REMARK   74  A    between atoms: _185  and  _187
REMARK   75  A    between atoms: _187  and  _188
REMARK   76  A    between atoms: _187  and  _190
REMARK   77  A    between atoms: _190  and  _191
REMARK   78  A    between atoms: _194  and  _196
REMARK   79  A    between atoms: _196  and  _197
REMARK   80  A    between atoms: _196  and  _199
REMARK   81  A    between atoms: _199  and  _200
REMARK   82  A    between atoms: _203  and  _205
REMARK   83  A    between atoms: _205  and  _206
REMARK   84  A    between atoms: _208  and  _210
REMARK   85  A    between atoms: _210  and  _211
REMARK   86  A    between atoms: _210  and  _213
REMARK   87  A    between atoms: _213  and  _214
REMARK   88  A    between atoms: _214  and  _215
REMARK   89  A    between atoms: _215  and  _216
REMARK   90  A    between atoms: _225  and  _227
REMARK   91  A    between atoms: _227  and  _228
REMARK   92  A    between atoms: _227  and  _230
REMARK   93  A    between atoms: _230  and  _231
REMARK   94  A    between atoms: _231  and  _232
REMARK   95  A    between atoms: _232  and  _233
REMARK   96  A    between atoms: _242  and  _244
REMARK   97  A    between atoms: _244  and  _245
REMARK   98  A    between atoms: _244  and  _247
REMARK   99  A    between atoms: _247  and  _248
REMARK  100  A    between atoms: _251  and  _253
REMARK  101  A    between atoms: _253  and  _254
REMARK  102  A    between atoms: _253  and  _256
REMARK  103  A    between atoms: _256  and  _257
REMARK  104  A    between atoms: _260  and  _262
REMARK  105  A    between atoms: _262  and  _263
REMARK  106  A    between atoms: _262  and  _265
REMARK  107  A    between atoms: _265  and  _266
REMARK  108  A    between atoms: _269  and  _271
REMARK  109  A    between atoms: _271  and  _272
REMARK  110  A    between atoms: _271  and  _274
REMARK  111  A    between atoms: _274  and  _275
REMARK  112  A    between atoms: _278  and  _280
REMARK  113  A    between atoms: _280  and  _281
REMARK  114  A    between atoms: _283  and  _285
REMARK  115  A    between atoms: _285  and  _286
REMARK  116  A    between atoms: _289  and  _291
REMARK  117  A    between atoms: _291  and  _292
REMARK  118  A    between atoms: _291  and  _294
REMARK  119  A    between atoms: _294  and  _295
REMARK  120  A    between atoms: _298  and  _300
REMARK  121  A    between atoms: _300  and  _301
REMARK  122  A    between atoms: _300  and  _303
REMARK  123  A    between atoms: _303  and  _304
REMARK  124  A    between atoms: _307  and  _309
REMARK  125  A    between atoms: _309  and  _310
REMARK  126  A    between atoms: _309  and  _312
REMARK  127  A    between atoms: _312  and  _313
REMARK  128  A    between atoms: _316  and  _318
REMARK  129  A    between atoms: _318  and  _319
REMARK  130  A    between atoms: _318  and  _321
REMARK  131  A    between atoms: _324  and  _326
REMARK  132  A    between atoms: _326  and  _327
REMARK  133  A    between atoms: _326  and  _329
REMARK  134  A    between atoms: _329  and  _330
REMARK  135  A    between atoms: _330  and  _331
REMARK  136  A    between atoms: _331  and  _332
REMARK  137  A    between atoms: _332  and  _333
REMARK  138  A    between atoms: _337  and  _339
REMARK  139  A    between atoms: _339  and  _340
REMARK  140  A    between atoms: _339  and  _342
REMARK  141  A    between atoms: _342  and  _343
REMARK  142  A    between atoms: _343  and  _344
REMARK  143  A    between atoms: _346  and  _348
REMARK  144  A    between atoms: _348  and  _349
REMARK  145  A    between atoms: _348  and  _351
REMARK  146  A    between atoms: _351  and  _352
REMARK  147  A    between atoms: _355  and  _357
REMARK  148  A    between atoms: _357  and  _358
REMARK  149  A    between atoms: _360  and  _362
REMARK  150  A    between atoms: _362  and  _363
REMARK  151  A    between atoms: _365  and  _367
REMARK  152  A    between atoms: _367  and  _368
REMARK  153  A    between atoms: _367  and  _370
REMARK  154  A    between atoms: _370  and  _371
REMARK  155  A    between atoms: _374  and  _376
REMARK  156  A    between atoms: _376  and  _377
REMARK  157  A    between atoms: _379  and  _381
REMARK  158  A    between atoms: _381  and  _382
REMARK  159  A    between atoms: _384  and  _386
REMARK  160  A    between atoms: _386  and  _387
REMARK  161  A    between atoms: _386  and  _389
REMARK  162  A    between atoms: _389  and  _390
REMARK  163  A    between atoms: _393  and  _395
REMARK  164  A    between atoms: _395  and  _396
REMARK  165  A    between atoms: _395  and  _398
REMARK  166  A    between atoms: _401  and  _403
REMARK  167  A    between atoms: _403  and  _404
REMARK  168  A    between atoms: _403  and  _406
REMARK  169  A    between atoms: _406  and  _407
REMARK  170  A    between atoms: _410  and  _412
REMARK  171  A    between atoms: _412  and  _413
REMARK  172  A    between atoms: _412  and  _415
REMARK  173  A    between atoms: _415  and  _416
REMARK  174  A    between atoms: _420  and  _421
REMARK  175  A    between atoms: _426  and  _428
REMARK  176  A    between atoms: _428  and  _429
REMARK  177  A    between atoms: _428  and  _431
REMARK  178  A    between atoms: _434  and  _436
REMARK  179  A    between atoms: _436  and  _437
REMARK  180  A    between atoms: _436  and  _439
REMARK  181  A    between atoms: _439  and  _440
REMARK  182  A    between atoms: _445  and  _447
REMARK  183  A    between atoms: _447  and  _448
REMARK  184  A    between atoms: _447  and  _450
REMARK  185  A    between atoms: _450  and  _451
REMARK  186  A    between atoms: _454  and  _456
REMARK  187  A    between atoms: _456  and  _457
REMARK  188  A    between atoms: _456  and  _459
REMARK  189  A    between atoms: _459  and  _460
REMARK  190  A    between atoms: _463  and  _465
REMARK  191  A    between atoms: _465  and  _466
REMARK  192  A    between atoms: _468  and  _470
REMARK  193  A    between atoms: _470  and  _471
REMARK  194  A    between atoms: _470  and  _473
REMARK  195  A    between atoms: _473  and  _474
REMARK  196  A    between atoms: _474  and  _475
REMARK  197  A    between atoms: _475  and  _476
REMARK  198  A    between atoms: _485  and  _487
REMARK  199  A    between atoms: _487  and  _488
REMARK  200  A    between atoms: _487  and  _490
REMARK  201  A    between atoms: _490  and  _491
REMARK                            x       y       z     vdW  Elec       q    Type
REMARK                         _______ _______ _______ _____ _____    ______ ____
ROOT
ATOM      1  O   HOH     1      23.363  25.516   5.455  0.00  0.00    +0.000 OA
ENDROOT
TORSDOF 0
REMARK  Name = ../refined-set-2016/2qi7/2qi7_pocket.pdb
REMARK  201 active torsions:
REMARK  status: ('A' for Active; 'I' for Inactive)
REMARK    1  A    between atoms: _1  and  _3
REMARK    2  A    between atoms: _3  and  _4
REMARK    3  A    between atoms: _3  and  _6
REMARK    4  A    between atoms: _6  and  _7
REMARK    5  A    between atoms: _7  and  _8
REMARK    6  A    between atoms: _8  and  _9
REMARK    7  A    between atoms: _18  and  _20
REMARK    8  A    between atoms: _20  and  _21
REMARK    9  A    between atoms: _20  and  _23
REMARK   10  A    between atoms: _23  and  _24
REMARK   11  A    between atoms: _27  and  _29
REMARK   12  A    between atoms: _29  and  _30
REMARK   13  A    between atoms: _29  and  _32
REMARK   14  A    between atoms: _32  and  _33
REMARK   15  A    between atoms: _36  and  _38
REMARK   16  A    between atoms: _38  and  _39
REMARK   17  A    between atoms: _38  and  _41
REMARK   18  A    between atoms: _41  and  _42
REMARK   19  A    between atoms: _45  and  _47
REMARK   20  A    between atoms: _47  and  _48
REMARK   21  A    between atoms: _47  and  _50
REMARK   22  A    between atoms: _50  and  _51
REMARK   23  A    between atoms: _54  and  _56
REMARK   24  A    between atoms: _56  and  _57
REMARK   25  A    between atoms: _59  and  _61
REMARK   26  A    between atoms: _61  and  _62
REMARK   27  A    between atoms: _65  and  _67
REMARK   28  A    between atoms: _67  and  _68
REMARK   29  A    between atoms: _67  and  _70
REMARK   30  A    between atoms: _70  and  _71
REMARK   31  A    between atoms: _74  and  _76
REMARK   32  A    between atoms: _76  and  _77
REMARK   33  A    between atoms: _76  and  _79
REMARK   34  A    between atoms: _79  and  _80
REMARK   35  A    between atoms: _83  and  _85
REMARK   36  A    between atoms: _85  and  _86
REMARK   37  A    between atoms: _85  and  _88
REMARK   38  A    between atoms: _88  and  _89
REMARK   39  A    between atoms: _92  and  _94
REMARK   40  A    between atoms: _94  and  _95
REMARK   41  A    between atoms: _94  and  _97
REMARK   42  A    between atoms: _100  and  _102
REMARK   43  A    between atoms: _102  and  _103
REMARK   44  A    between atoms: _102  and  _105
REMARK   45  A    between atoms: _105  and  _106
REMARK   46  A    between atoms: _109  and  _111
REMARK   47  A    between atoms: _111  and  _112
REMARK   48  A    between atoms: _114  and  _116
REMARK   49  A    between atoms: _116  and  _117
REMARK   50  A    between atoms: _119  and  _121
REMARK   51  A    between atoms: _121  and  _122
REMARK   52  A    between atoms: _121  and  _124
REMARK   53  A    between atoms: _124  and  _125
REMARK   54  A    between atoms: _128  and  _130
REMARK   55  A    between atoms: _130  and  _131
REMARK   56  A    between atoms: _133  and  _135
REMARK   57  A    between atoms: _135  and  _136
REMARK   58  A    between atoms: _138  and  _140
REMARK   59  A    between atoms: _140  and  _141
REMARK   60  A    between atoms: _140  and  _143
REMARK   61  A    between atoms: _143  and  _144
REMARK   62  A    between atoms: _150  and  _152
REMARK   63  A    between atoms: _152  and  _153
REMARK   64  A    between atoms: _152  and  _155
REMARK   65  A    between atoms: _155  and  _156
REMARK   66  A    between atoms: _160  and  _161
REMARK   67  A    between atoms: _166  and  _168
REMARK   68  A    between atoms: _168  and  _169
REMARK   69  A    between atoms: _168  and  _171
REMARK   70  A    between atoms: _174  and  _176
REMARK   71  A    between atoms: _176  and  _177
REMARK   72  A    between atoms: _176  and  _179
REMARK   73  A    between atoms: _179  and  _180
REMARK   74  A    between atoms: _185  and  _187
REMARK   75  A    between atoms: _187  and  _188
REMARK   76  A    between atoms: _187  and  _190
REMARK   77  A    between atoms: _190  and  _191
REMARK   78  A    between atoms: _194  and  _196
REMARK   79  A    between atoms: _196  and  _197
REMARK   80  A    between atoms: _196  and  _199
REMARK   81  A    between atoms: _199  and  _200
REMARK   82  A    between atoms: _203  and  _205
REMARK   83  A    between atoms: _205  and  _206
REMARK   84  A    between atoms: _208  and  _210
REMARK   85  A    between atoms: _210  and  _211
REMARK   86  A    between atoms: _210  and  _213
REMARK   87  A    between atoms: _213  and  _214
REMARK   88  A    between atoms: _214  and  _215
REMARK   89  A    between atoms: _215  and  _216
REMARK   90  A    between atoms: _225  and  _227
REMARK   91  A    between atoms: _227  and  _228
REMARK   92  A    between atoms: _227  and  _230
REMARK   93  A    between atoms: _230  and  _231
REMARK   94  A    between atoms: _231  and  _232
REMARK   95  A    between atoms: _232  and  _233
REMARK   96  A    between atoms: _242  and  _244
REMARK   97  A    between atoms: _244  and  _245
REMARK   98  A    between atoms: _244  and  _247
REMARK   99  A    between atoms: _247  and  _248
REMARK  100  A    between atoms: _251  and  _253
REMARK  101  A    between atoms: _253  and  _254
REMARK  102  A    between atoms: _253  and  _256
REMARK  103  A    between atoms: _256  and  _257
REMARK  104  A    between atoms: _260  and  _262
REMARK  105  A    between atoms: _262  and  _263
REMARK  106  A    between atoms: _262  and  _265
REMARK  107  A    between atoms: _265  and  _266
REMARK  108  A    between atoms: _269  and  _271
REMARK  109  A    between atoms: _271  and  _272
REMARK  110  A    between atoms: _271  and  _274
REMARK  111  A    between atoms: _274  and  _275
REMARK  112  A    between atoms: _278  and  _280
REMARK  113  A    between atoms: _280  and  _281
REMARK  114  A    between atoms: _283  and  _285
REMARK  115  A    between atoms: _285  and  _286
REMARK  116  A    between atoms: _289  and  _291
REMARK  117  A    between atoms: _291  and  _292
REMARK  118  A    between atoms: _291  and  _294
REMARK  119  A    between atoms: _294  and  _295
REMARK  120  A    between atoms: _298  and  _300
REMARK  121  A    between atoms: _300  and  _301
REMARK  122  A    between atoms: _300  and  _303
REMARK  123  A    between atoms: _303  and  _304
REMARK  124  A    between atoms: _307  and  _309
REMARK  125  A    between atoms: _309  and  _310
REMARK  126  A    between atoms: _309  and  _312
REMARK  127  A    between atoms: _312  and  _313
REMARK  128  A    between atoms: _316  and  _318
REMARK  129  A    between atoms: _318  and  _319
REMARK  130  A    between atoms: _318  and  _321
REMARK  131  A    between atoms: _324  and  _326
REMARK  132  A    between atoms: _326  and  _327
REMARK  133  A    between atoms: _326  and  _329
REMARK  134  A    between atoms: _329  and  _330
REMARK  135  A    between atoms: _330  and  _331
REMARK  136  A    between atoms: _331  and  _332
REMARK  137  A    between atoms: _332  and  _333
REMARK  138  A    between atoms: _337  and  _339
REMARK  139  A    between atoms: _339  and  _340
REMARK  140  A    between atoms: _339  and  _342
REMARK  141  A    between atoms: _342  and  _343
REMARK  142  A    between atoms: _343  and  _344
REMARK  143  A    between atoms: _346  and  _348
REMARK  144  A    between atoms: _348  and  _349
REMARK  145  A    between atoms: _348  and  _351
REMARK  146  A    between atoms: _351  and  _352
REMARK  147  A    between atoms: _355  and  _357
REMARK  148  A    between atoms: _357  and  _358
REMARK  149  A    between atoms: _360  and  _362
REMARK  150  A    between atoms: _362  and  _363
REMARK  151  A    between atoms: _365  and  _367
REMARK  152  A    between atoms: _367  and  _368
REMARK  153  A    between atoms: _367  and  _370
REMARK  154  A    between atoms: _370  and  _371
REMARK  155  A    between atoms: _374  and  _376
REMARK  156  A    between atoms: _376  and  _377
REMARK  157  A    between atoms: _379  and  _381
REMARK  158  A    between atoms: _381  and  _382
REMARK  159  A    between atoms: _384  and  _386
REMARK  160  A    between atoms: _386  and  _387
REMARK  161  A    between atoms: _386  and  _389
REMARK  162  A    between atoms: _389  and  _390
REMARK  163  A    between atoms: _393  and  _395
REMARK  164  A    between atoms: _395  and  _396
REMARK  165  A    between atoms: _395  and  _398
REMARK  166  A    between atoms: _401  and  _403
REMARK  167  A    between atoms: _403  and  _404
REMARK  168  A    between atoms: _403  and  _406
REMARK  169  A    between atoms: _406  and  _407
REMARK  170  A    between atoms: _410  and  _412
REMARK  171  A    between atoms: _412  and  _413
REMARK  172  A    between atoms: _412  and  _415
REMARK  173  A    between atoms: _415  and  _416
REMARK  174  A    between atoms: _420  and  _421
REMARK  175  A    between atoms: _426  and  _428
REMARK  176  A    between atoms: _428  and  _429
REMARK  177  A    between atoms: _428  and  _431
REMARK  178  A    between atoms: _434  and  _436
REMARK  179  A    between atoms: _436  and  _437
REMARK  180  A    between atoms: _436  and  _439
REMARK  181  A    between atoms: _439  and  _440
REMARK  182  A    between atoms: _445  and  _447
REMARK  183  A    between atoms: _447  and  _448
REMARK  184  A    between atoms: _447  and  _450
REMARK  185  A    between atoms: _450  and  _451
REMARK  186  A    between atoms: _454  and  _456
REMARK  187  A    between atoms: _456  and  _457
REMARK  188  A    between atoms: _456  and  _459
REMARK  189  A    between atoms: _459  and  _460
REMARK  190  A    between atoms: _463  and  _465
REMARK  191  A    between atoms: _465  and  _466
REMARK  192  A    between atoms: _468  and  _470
REMARK  193  A    between atoms: _470  and  _471
REMARK  194  A    between atoms: _470  and  _473
REMARK  195  A    between atoms: _473  and  _474
REMARK  196  A    between atoms: _474  and  _475
REMARK  197  A    between atoms: _475  and  _476
REMARK  198  A    between atoms: _485  and  _487
REMARK  199  A    between atoms: _487  and  _488
REMARK  200  A    between atoms: _487  and  _490
REMARK  201  A    between atoms: _490  and  _491
REMARK                            x       y       z     vdW  Elec       q    Type
REMARK                         _______ _______ _______ _____ _____    ______ ____
ROOT
ATOM      1  O   HOH     1      15.082  33.941   5.218  0.00  0.00    +0.000 OA
ENDROOT
TORSDOF 0
REMARK  Name = ../refined-set-2016/2qi7/2qi7_pocket.pdb
REMARK  201 active torsions:
REMARK  status: ('A' for Active; 'I' for Inactive)
REMARK    1  A    between atoms: _1  and  _3
REMARK    2  A    between atoms: _3  and  _4
REMARK    3  A    between atoms: _3  and  _6
REMARK    4  A    between atoms: _6  and  _7
REMARK    5  A    between atoms: _7  and  _8
REMARK    6  A    between atoms: _8  and  _9
REMARK    7  A    between atoms: _18  and  _20
REMARK    8  A    between atoms: _20  and  _21
REMARK    9  A    between atoms: _20  and  _23
REMARK   10  A    between atoms: _23  and  _24
REMARK   11  A    between atoms: _27  and  _29
REMARK   12  A    between atoms: _29  and  _30
REMARK   13  A    between atoms: _29  and  _32
REMARK   14  A    between atoms: _32  and  _33
REMARK   15  A    between atoms: _36  and  _38
REMARK   16  A    between atoms: _38  and  _39
REMARK   17  A    between atoms: _38  and  _41
REMARK   18  A    between atoms: _41  and  _42
REMARK   19  A    between atoms: _45  and  _47
REMARK   20  A    between atoms: _47  and  _48
REMARK   21  A    between atoms: _47  and  _50
REMARK   22  A    between atoms: _50  and  _51
REMARK   23  A    between atoms: _54  and  _56
REMARK   24  A    between atoms: _56  and  _57
REMARK   25  A    between atoms: _59  and  _61
REMARK   26  A    between atoms: _61  and  _62
REMARK   27  A    between atoms: _65  and  _67
REMARK   28  A    between atoms: _67  and  _68
REMARK   29  A    between atoms: _67  and  _70
REMARK   30  A    between atoms: _70  and  _71
REMARK   31  A    between atoms: _74  and  _76
REMARK   32  A    between atoms: _76  and  _77
REMARK   33  A    between atoms: _76  and  _79
REMARK   34  A    between atoms: _79  and  _80
REMARK   35  A    between atoms: _83  and  _85
REMARK   36  A    between atoms: _85  and  _86
REMARK   37  A    between atoms: _85  and  _88
REMARK   38  A    between atoms: _88  and  _89
REMARK   39  A    between atoms: _92  and  _94
REMARK   40  A    between atoms: _94  and  _95
REMARK   41  A    between atoms: _94  and  _97
REMARK   42  A    between atoms: _100  and  _102
REMARK   43  A    between atoms: _102  and  _103
REMARK   44  A    between atoms: _102  and  _105
REMARK   45  A    between atoms: _105  and  _106
REMARK   46  A    between atoms: _109  and  _111
REMARK   47  A    between atoms: _111  and  _112
REMARK   48  A    between atoms: _114  and  _116
REMARK   49  A    between atoms: _116  and  _117
REMARK   50  A    between atoms: _119  and  _121
REMARK   51  A    between atoms: _121  and  _122
REMARK   52  A    between atoms: _121  and  _124
REMARK   53  A    between atoms: _124  and  _125
REMARK   54  A    between atoms: _128  and  _130
REMARK   55  A    between atoms: _130  and  _131
REMARK   56  A    between atoms: _133  and  _135
REMARK   57  A    between atoms: _135  and  _136
REMARK   58  A    between atoms: _138  and  _140
REMARK   59  A    between atoms: _140  and  _141
REMARK   60  A    between atoms: _140  and  _143
REMARK   61  A    between atoms: _143  and  _144
REMARK   62  A    between atoms: _150  and  _152
REMARK   63  A    between atoms: _152  and  _153
REMARK   64  A    between atoms: _152  and  _155
REMARK   65  A    between atoms: _155  and  _156
REMARK   66  A    between atoms: _160  and  _161
REMARK   67  A    between atoms: _166  and  _168
REMARK   68  A    between atoms: _168  and  _169
REMARK   69  A    between atoms: _168  and  _171
REMARK   70  A    between atoms: _174  and  _176
REMARK   71  A    between atoms: _176  and  _177
REMARK   72  A    between atoms: _176  and  _179
REMARK   73  A    between atoms: _179  and  _180
REMARK   74  A    between atoms: _185  and  _187
REMARK   75  A    between atoms: _187  and  _188
REMARK   76  A    between atoms: _187  and  _190
REMARK   77  A    between atoms: _190  and  _191
REMARK   78  A    between atoms: _194  and  _196
REMARK   79  A    between atoms: _196  and  _197
REMARK   80  A    between atoms: _196  and  _199
REMARK   81  A    between atoms: _199  and  _200
REMARK   82  A    between atoms: _203  and  _205
REMARK   83  A    between atoms: _205  and  _206
REMARK   84  A    between atoms: _208  and  _210
REMARK   85  A    between atoms: _210  and  _211
REMARK   86  A    between atoms: _210  and  _213
REMARK   87  A    between atoms: _213  and  _214
REMARK   88  A    between atoms: _214  and  _215
REMARK   89  A    between atoms: _215  and  _216
REMARK   90  A    between atoms: _225  and  _227
REMARK   91  A    between atoms: _227  and  _228
REMARK   92  A    between atoms: _227  and  _230
REMARK   93  A    between atoms: _230  and  _231
REMARK   94  A    between atoms: _231  and  _232
REMARK   95  A    between atoms: _232  and  _233
REMARK   96  A    between atoms: _242  and  _244
REMARK   97  A    between atoms: _244  and  _245
REMARK   98  A    between atoms: _244  and  _247
REMARK   99  A    between atoms: _247  and  _248
REMARK  100  A    between atoms: _251  and  _253
REMARK  101  A    between atoms: _253  and  _254
REMARK  102  A    between atoms: _253  and  _256
REMARK  103  A    between atoms: _256  and  _257
REMARK  104  A    between atoms: _260  and  _262
REMARK  105  A    between atoms: _262  and  _263
REMARK  106  A    between atoms: _262  and  _265
REMARK  107  A    between atoms: _265  and  _266
REMARK  108  A    between atoms: _269  and  _271
REMARK  109  A    between atoms: _271  and  _272
REMARK  110  A    between atoms: _271  and  _274
REMARK  111  A    between atoms: _274  and  _275
REMARK  112  A    between atoms: _278  and  _280
REMARK  113  A    between atoms: _280  and  _281
REMARK  114  A    between atoms: _283  and  _285
REMARK  115  A    between atoms: _285  and  _286
REMARK  116  A    between atoms: _289  and  _291
REMARK  117  A    between atoms: _291  and  _292
REMARK  118  A    between atoms: _291  and  _294
REMARK  119  A    between atoms: _294  and  _295
REMARK  120  A    between atoms: _298  and  _300
REMARK  121  A    between atoms: _300  and  _301
REMARK  122  A    between atoms: _300  and  _303
REMARK  123  A    between atoms: _303  and  _304
REMARK  124  A    between atoms: _307  and  _309
REMARK  125  A    between atoms: _309  and  _310
REMARK  126  A    between atoms: _309  and  _312
REMARK  127  A    between atoms: _312  and  _313
REMARK  128  A    between atoms: _316  and  _318
REMARK  129  A    between atoms: _318  and  _319
REMARK  130  A    between atoms: _318  and  _321
REMARK  131  A    between atoms: _324  and  _326
REMARK  132  A    between atoms: _326  and  _327
REMARK  133  A    between atoms: _326  and  _329
REMARK  134  A    between atoms: _329  and  _330
REMARK  135  A    between atoms: _330  and  _331
REMARK  136  A    between atoms: _331  and  _332
REMARK  137  A    between atoms: _332  and  _333
REMARK  138  A    between atoms: _337  and  _339
REMARK  139  A    between atoms: _339  and  _340
REMARK  140  A    between atoms: _339  and  _342
REMARK  141  A    between atoms: _342  and  _343
REMARK  142  A    between atoms: _343  and  _344
REMARK  143  A    between atoms: _346  and  _348
REMARK  144  A    between atoms: _348  and  _349
REMARK  145  A    between atoms: _348  and  _351
REMARK  146  A    between atoms: _351  and  _352
REMARK  147  A    between atoms: _355  and  _357
REMARK  148  A    between atoms: _357  and  _358
REMARK  149  A    between atoms: _360  and  _362
REMARK  150  A    between atoms: _362  and  _363
REMARK  151  A    between atoms: _365  and  _367
REMARK  152  A    between atoms: _367  and  _368
REMARK  153  A    between atoms: _367  and  _370
REMARK  154  A    between atoms: _370  and  _371
REMARK  155  A    between atoms: _374  and  _376
REMARK  156  A    between atoms: _376  and  _377
REMARK  157  A    between atoms: _379  and  _381
REMARK  158  A    between atoms: _381  and  _382
REMARK  159  A    between atoms: _384  and  _386
REMARK  160  A    between atoms: _386  and  _387
REMARK  161  A    between atoms: _386  and  _389
REMARK  162  A    between atoms: _389  and  _390
REMARK  163  A    between atoms: _393  and  _395
REMARK  164  A    between atoms: _395  and  _396
REMARK  165  A    between atoms: _395  and  _398
REMARK  166  A    between atoms: _401  and  _403
REMARK  167  A    between atoms: _403  and  _404
REMARK  168  A    between atoms: _403  and  _406
REMARK  169  A    between atoms: _406  and  _407
REMARK  170  A    between atoms: _410  and  _412
REMARK  171  A    between atoms: _412  and  _413
REMARK  172  A    between atoms: _412  and  _415
REMARK  173  A    between atoms: _415  and  _416
REMARK  174  A    between atoms: _420  and  _421
REMARK  175  A    between atoms: _426  and  _428
REMARK  176  A    between atoms: _428  and  _429
REMARK  177  A    between atoms: _428  and  _431
REMARK  178  A    between atoms: _434  and  _436
REMARK  179  A    between atoms: _436  and  _437
REMARK  180  A    between atoms: _436  and  _439
REMARK  181  A    between atoms: _439  and  _440
REMARK  182  A    between atoms: _445  and  _447
REMARK  183  A    between atoms: _447  and  _448
REMARK  184  A    between atoms: _447  and  _450
REMARK  185  A    between atoms: _450  and  _451
REMARK  186  A    between atoms: _454  and  _456
REMARK  187  A    between atoms: _456  and  _457
REMARK  188  A    between atoms: _456  and  _459
REMARK  189  A    between atoms: _459  and  _460
REMARK  190  A    between atoms: _463  and  _465
REMARK  191  A    between atoms: _465  and  _466
REMARK  192  A    between atoms: _468  and  _470
REMARK  193  A    between atoms: _470  and  _471
REMARK  194  A    between atoms: _470  and  _473
REMARK  195  A    between atoms: _473  and  _474
REMARK  196  A    between atoms: _474  and  _475
REMARK  197  A    between atoms: _475  and  _476
REMARK  198  A    between atoms: _485  and  _487
REMARK  199  A    between atoms: _487  and  _488
REMARK  200  A    between atoms: _487  and  _490
REMARK  201  A    between atoms: _490  and  _491
REMARK                            x       y       z     vdW  Elec       q    Type
REMARK                         _______ _______ _______ _____ _____    ______ ____
ROOT
ATOM      1  O   HOH     1      24.070  21.579   8.151  0.00  0.00    +0.000 OA
ENDROOT
TORSDOF 0
REMARK  Name = ../refined-set-2016/2qi7/2qi7_pocket.pdb
REMARK  201 active torsions:
REMARK  status: ('A' for Active; 'I' for Inactive)
REMARK    1  A    between atoms: _1  and  _3
REMARK    2  A    between atoms: _3  and  _4
REMARK    3  A    between atoms: _3  and  _6
REMARK    4  A    between atoms: _6  and  _7
REMARK    5  A    between atoms: _7  and  _8
REMARK    6  A    between atoms: _8  and  _9
REMARK    7  A    between atoms: _18  and  _20
REMARK    8  A    between atoms: _20  and  _21
REMARK    9  A    between atoms: _20  and  _23
REMARK   10  A    between atoms: _23  and  _24
REMARK   11  A    between atoms: _27  and  _29
REMARK   12  A    between atoms: _29  and  _30
REMARK   13  A    between atoms: _29  and  _32
REMARK   14  A    between atoms: _32  and  _33
REMARK   15  A    between atoms: _36  and  _38
REMARK   16  A    between atoms: _38  and  _39
REMARK   17  A    between atoms: _38  and  _41
REMARK   18  A    between atoms: _41  and  _42
REMARK   19  A    between atoms: _45  and  _47
REMARK   20  A    between atoms: _47  and  _48
REMARK   21  A    between atoms: _47  and  _50
REMARK   22  A    between atoms: _50  and  _51
REMARK   23  A    between atoms: _54  and  _56
REMARK   24  A    between atoms: _56  and  _57
REMARK   25  A    between atoms: _59  and  _61
REMARK   26  A    between atoms: _61  and  _62
REMARK   27  A    between atoms: _65  and  _67
REMARK   28  A    between atoms: _67  and  _68
REMARK   29  A    between atoms: _67  and  _70
REMARK   30  A    between atoms: _70  and  _71
REMARK   31  A    between atoms: _74  and  _76
REMARK   32  A    between atoms: _76  and  _77
REMARK   33  A    between atoms: _76  and  _79
REMARK   34  A    between atoms: _79  and  _80
REMARK   35  A    between atoms: _83  and  _85
REMARK   36  A    between atoms: _85  and  _86
REMARK   37  A    between atoms: _85  and  _88
REMARK   38  A    between atoms: _88  and  _89
REMARK   39  A    between atoms: _92  and  _94
REMARK   40  A    between atoms: _94  and  _95
REMARK   41  A    between atoms: _94  and  _97
REMARK   42  A    between atoms: _100  and  _102
REMARK   43  A    between atoms: _102  and  _103
REMARK   44  A    between atoms: _102  and  _105
REMARK   45  A    between atoms: _105  and  _106
REMARK   46  A    between atoms: _109  and  _111
REMARK   47  A    between atoms: _111  and  _112
REMARK   48  A    between atoms: _114  and  _116
REMARK   49  A    between atoms: _116  and  _117
REMARK   50  A    between atoms: _119  and  _121
REMARK   51  A    between atoms: _121  and  _122
REMARK   52  A    between atoms: _121  and  _124
REMARK   53  A    between atoms: _124  and  _125
REMARK   54  A    between atoms: _128  and  _130
REMARK   55  A    between atoms: _130  and  _131
REMARK   56  A    between atoms: _133  and  _135
REMARK   57  A    between atoms: _135  and  _136
REMARK   58  A    between atoms: _138  and  _140
REMARK   59  A    between atoms: _140  and  _141
REMARK   60  A    between atoms: _140  and  _143
REMARK   61  A    between atoms: _143  and  _144
REMARK   62  A    between atoms: _150  and  _152
REMARK   63  A    between atoms: _152  and  _153
REMARK   64  A    between atoms: _152  and  _155
REMARK   65  A    between atoms: _155  and  _156
REMARK   66  A    between atoms: _160  and  _161
REMARK   67  A    between atoms: _166  and  _168
REMARK   68  A    between atoms: _168  and  _169
REMARK   69  A    between atoms: _168  and  _171
REMARK   70  A    between atoms: _174  and  _176
REMARK   71  A    between atoms: _176  and  _177
REMARK   72  A    between atoms: _176  and  _179
REMARK   73  A    between atoms: _179  and  _180
REMARK   74  A    between atoms: _185  and  _187
REMARK   75  A    between atoms: _187  and  _188
REMARK   76  A    between atoms: _187  and  _190
REMARK   77  A    between atoms: _190  and  _191
REMARK   78  A    between atoms: _194  and  _196
REMARK   79  A    between atoms: _196  and  _197
REMARK   80  A    between atoms: _196  and  _199
REMARK   81  A    between atoms: _199  and  _200
REMARK   82  A    between atoms: _203  and  _205
REMARK   83  A    between atoms: _205  and  _206
REMARK   84  A    between atoms: _208  and  _210
REMARK   85  A    between atoms: _210  and  _211
REMARK   86  A    between atoms: _210  and  _213
REMARK   87  A    between atoms: _213  and  _214
REMARK   88  A    between atoms: _214  and  _215
REMARK   89  A    between atoms: _215  and  _216
REMARK   90  A    between atoms: _225  and  _227
REMARK   91  A    between atoms: _227  and  _228
REMARK   92  A    between atoms: _227  and  _230
REMARK   93  A    between atoms: _230  and  _231
REMARK   94  A    between atoms: _231  and  _232
REMARK   95  A    between atoms: _232  and  _233
REMARK   96  A    between atoms: _242  and  _244
REMARK   97  A    between atoms: _244  and  _245
REMARK   98  A    between atoms: _244  and  _247
REMARK   99  A    between atoms: _247  and  _248
REMARK  100  A    between atoms: _251  and  _253
REMARK  101  A    between atoms: _253  and  _254
REMARK  102  A    between atoms: _253  and  _256
REMARK  103  A    between atoms: _256  and  _257
REMARK  104  A    between atoms: _260  and  _262
REMARK  105  A    between atoms: _262  and  _263
REMARK  106  A    between atoms: _262  and  _265
REMARK  107  A    between atoms: _265  and  _266
REMARK  108  A    between atoms: _269  and  _271
REMARK  109  A    between atoms: _271  and  _272
REMARK  110  A    between atoms: _271  and  _274
REMARK  111  A    between atoms: _274  and  _275
REMARK  112  A    between atoms: _278  and  _280
REMARK  113  A    between atoms: _280  and  _281
REMARK  114  A    between atoms: _283  and  _285
REMARK  115  A    between atoms: _285  and  _286
REMARK  116  A    between atoms: _289  and  _291
REMARK  117  A    between atoms: _291  and  _292
REMARK  118  A    between atoms: _291  and  _294
REMARK  119  A    between atoms: _294  and  _295
REMARK  120  A    between atoms: _298  and  _300
REMARK  121  A    between atoms: _300  and  _301
REMARK  122  A    between atoms: _300  and  _303
REMARK  123  A    between atoms: _303  and  _304
REMARK  124  A    between atoms: _307  and  _309
REMARK  125  A    between atoms: _309  and  _310
REMARK  126  A    between atoms: _309  and  _312
REMARK  127  A    between atoms: _312  and  _313
REMARK  128  A    between atoms: _316  and  _318
REMARK  129  A    between atoms: _318  and  _319
REMARK  130  A    between atoms: _318  and  _321
REMARK  131  A    between atoms: _324  and  _326
REMARK  132  A    between atoms: _326  and  _327
REMARK  133  A    between atoms: _326  and  _329
REMARK  134  A    between atoms: _329  and  _330
REMARK  135  A    between atoms: _330  and  _331
REMARK  136  A    between atoms: _331  and  _332
REMARK  137  A    between atoms: _332  and  _333
REMARK  138  A    between atoms: _337  and  _339
REMARK  139  A    between atoms: _339  and  _340
REMARK  140  A    between atoms: _339  and  _342
REMARK  141  A    between atoms: _342  and  _343
REMARK  142  A    between atoms: _343  and  _344
REMARK  143  A    between atoms: _346  and  _348
REMARK  144  A    between atoms: _348  and  _349
REMARK  145  A    between atoms: _348  and  _351
REMARK  146  A    between atoms: _351  and  _352
REMARK  147  A    between atoms: _355  and  _357
REMARK  148  A    between atoms: _357  and  _358
REMARK  149  A    between atoms: _360  and  _362
REMARK  150  A    between atoms: _362  and  _363
REMARK  151  A    between atoms: _365  and  _367
REMARK  152  A    between atoms: _367  and  _368
REMARK  153  A    between atoms: _367  and  _370
REMARK  154  A    between atoms: _370  and  _371
REMARK  155  A    between atoms: _374  and  _376
REMARK  156  A    between atoms: _376  and  _377
REMARK  157  A    between atoms: _379  and  _381
REMARK  158  A    between atoms: _381  and  _382
REMARK  159  A    between atoms: _384  and  _386
REMARK  160  A    between atoms: _386  and  _387
REMARK  161  A    between atoms: _386  and  _389
REMARK  162  A    between atoms: _389  and  _390
REMARK  163  A    between atoms: _393  and  _395
REMARK  164  A    between atoms: _395  and  _396
REMARK  165  A    between atoms: _395  and  _398
REMARK  166  A    between atoms: _401  and  _403
REMARK  167  A    between atoms: _403  and  _404
REMARK  168  A    between atoms: _403  and  _406
REMARK  169  A    between atoms: _406  and  _407
REMARK  170  A    between atoms: _410  and  _412
REMARK  171  A    between atoms: _412  and  _413
REMARK  172  A    between atoms: _412  and  _415
REMARK  173  A    between atoms: _415  and  _416
REMARK  174  A    between atoms: _420  and  _421
REMARK  175  A    between atoms: _426  and  _428
REMARK  176  A    between atoms: _428  and  _429
REMARK  177  A    between atoms: _428  and  _431
REMARK  178  A    between atoms: _434  and  _436
REMARK  179  A    between atoms: _436  and  _437
REMARK  180  A    between atoms: _436  and  _439
REMARK  181  A    between atoms: _439  and  _440
REMARK  182  A    between atoms: _445  and  _447
REMARK  183  A    between atoms: _447  and  _448
REMARK  184  A    between atoms: _447  and  _450
REMARK  185  A    between atoms: _450  and  _451
REMARK  186  A    between atoms: _454  and  _456
REMARK  187  A    between atoms: _456  and  _457
REMARK  188  A    between atoms: _456  and  _459
REMARK  189  A    between atoms: _459  and  _460
REMARK  190  A    between atoms: _463  and  _465
REMARK  191  A    between atoms: _465  and  _466
REMARK  192  A    between atoms: _468  and  _470
REMARK  193  A    between atoms: _470  and  _471
REMARK  194  A    between atoms: _470  and  _473
REMARK  195  A    between atoms: _473  and  _474
REMARK  196  A    between atoms: _474  and  _475
REMARK  197  A    between atoms: _475  and  _476
REMARK  198  A    between atoms: _485  and  _487
REMARK  199  A    between atoms: _487  and  _488
REMARK  200  A    between atoms: _487  and  _490
REMARK  201  A    between atoms: _490  and  _491
REMARK                            x       y       z     vdW  Elec       q    Type
REMARK                         _______ _______ _______ _____ _____    ______ ____
ROOT
ATOM      1  O   HOH     1      24.712  40.367  16.955  0.00  0.00    +0.000 OA
ENDROOT
TORSDOF 0
REMARK  Name = ../refined-set-2016/2qi7/2qi7_pocket.pdb
REMARK  201 active torsions:
REMARK  status: ('A' for Active; 'I' for Inactive)
REMARK    1  A    between atoms: _1  and  _3
REMARK    2  A    between atoms: _3  and  _4
REMARK    3  A    between atoms: _3  and  _6
REMARK    4  A    between atoms: _6  and  _7
REMARK    5  A    between atoms: _7  and  _8
REMARK    6  A    between atoms: _8  and  _9
REMARK    7  A    between atoms: _18  and  _20
REMARK    8  A    between atoms: _20  and  _21
REMARK    9  A    between atoms: _20  and  _23
REMARK   10  A    between atoms: _23  and  _24
REMARK   11  A    between atoms: _27  and  _29
REMARK   12  A    between atoms: _29  and  _30
REMARK   13  A    between atoms: _29  and  _32
REMARK   14  A    between atoms: _32  and  _33
REMARK   15  A    between atoms: _36  and  _38
REMARK   16  A    between atoms: _38  and  _39
REMARK   17  A    between atoms: _38  and  _41
REMARK   18  A    between atoms: _41  and  _42
REMARK   19  A    between atoms: _45  and  _47
REMARK   20  A    between atoms: _47  and  _48
REMARK   21  A    between atoms: _47  and  _50
REMARK   22  A    between atoms: _50  and  _51
REMARK   23  A    between atoms: _54  and  _56
REMARK   24  A    between atoms: _56  and  _57
REMARK   25  A    between atoms: _59  and  _61
REMARK   26  A    between atoms: _61  and  _62
REMARK   27  A    between atoms: _65  and  _67
REMARK   28  A    between atoms: _67  and  _68
REMARK   29  A    between atoms: _67  and  _70
REMARK   30  A    between atoms: _70  and  _71
REMARK   31  A    between atoms: _74  and  _76
REMARK   32  A    between atoms: _76  and  _77
REMARK   33  A    between atoms: _76  and  _79
REMARK   34  A    between atoms: _79  and  _80
REMARK   35  A    between atoms: _83  and  _85
REMARK   36  A    between atoms: _85  and  _86
REMARK   37  A    between atoms: _85  and  _88
REMARK   38  A    between atoms: _88  and  _89
REMARK   39  A    between atoms: _92  and  _94
REMARK   40  A    between atoms: _94  and  _95
REMARK   41  A    between atoms: _94  and  _97
REMARK   42  A    between atoms: _100  and  _102
REMARK   43  A    between atoms: _102  and  _103
REMARK   44  A    between atoms: _102  and  _105
REMARK   45  A    between atoms: _105  and  _106
REMARK   46  A    between atoms: _109  and  _111
REMARK   47  A    between atoms: _111  and  _112
REMARK   48  A    between atoms: _114  and  _116
REMARK   49  A    between atoms: _116  and  _117
REMARK   50  A    between atoms: _119  and  _121
REMARK   51  A    between atoms: _121  and  _122
REMARK   52  A    between atoms: _121  and  _124
REMARK   53  A    between atoms: _124  and  _125
REMARK   54  A    between atoms: _128  and  _130
REMARK   55  A    between atoms: _130  and  _131
REMARK   56  A    between atoms: _133  and  _135
REMARK   57  A    between atoms: _135  and  _136
REMARK   58  A    between atoms: _138  and  _140
REMARK   59  A    between atoms: _140  and  _141
REMARK   60  A    between atoms: _140  and  _143
REMARK   61  A    between atoms: _143  and  _144
REMARK   62  A    between atoms: _150  and  _152
REMARK   63  A    between atoms: _152  and  _153
REMARK   64  A    between atoms: _152  and  _155
REMARK   65  A    between atoms: _155  and  _156
REMARK   66  A    between atoms: _160  and  _161
REMARK   67  A    between atoms: _166  and  _168
REMARK   68  A    between atoms: _168  and  _169
REMARK   69  A    between atoms: _168  and  _171
REMARK   70  A    between atoms: _174  and  _176
REMARK   71  A    between atoms: _176  and  _177
REMARK   72  A    between atoms: _176  and  _179
REMARK   73  A    between atoms: _179  and  _180
REMARK   74  A    between atoms: _185  and  _187
REMARK   75  A    between atoms: _187  and  _188
REMARK   76  A    between atoms: _187  and  _190
REMARK   77  A    between atoms: _190  and  _191
REMARK   78  A    between atoms: _194  and  _196
REMARK   79  A    between atoms: _196  and  _197
REMARK   80  A    between atoms: _196  and  _199
REMARK   81  A    between atoms: _199  and  _200
REMARK   82  A    between atoms: _203  and  _205
REMARK   83  A    between atoms: _205  and  _206
REMARK   84  A    between atoms: _208  and  _210
REMARK   85  A    between atoms: _210  and  _211
REMARK   86  A    between atoms: _210  and  _213
REMARK   87  A    between atoms: _213  and  _214
REMARK   88  A    between atoms: _214  and  _215
REMARK   89  A    between atoms: _215  and  _216
REMARK   90  A    between atoms: _225  and  _227
REMARK   91  A    between atoms: _227  and  _228
REMARK   92  A    between atoms: _227  and  _230
REMARK   93  A    between atoms: _230  and  _231
REMARK   94  A    between atoms: _231  and  _232
REMARK   95  A    between atoms: _232  and  _233
REMARK   96  A    between atoms: _242  and  _244
REMARK   97  A    between atoms: _244  and  _245
REMARK   98  A    between atoms: _244  and  _247
REMARK   99  A    between atoms: _247  and  _248
REMARK  100  A    between atoms: _251  and  _253
REMARK  101  A    between atoms: _253  and  _254
REMARK  102  A    between atoms: _253  and  _256
REMARK  103  A    between atoms: _256  and  _257
REMARK  104  A    between atoms: _260  and  _262
REMARK  105  A    between atoms: _262  and  _263
REMARK  106  A    between atoms: _262  and  _265
REMARK  107  A    between atoms: _265  and  _266
REMARK  108  A    between atoms: _269  and  _271
REMARK  109  A    between atoms: _271  and  _272
REMARK  110  A    between atoms: _271  and  _274
REMARK  111  A    between atoms: _274  and  _275
REMARK  112  A    between atoms: _278  and  _280
REMARK  113  A    between atoms: _280  and  _281
REMARK  114  A    between atoms: _283  and  _285
REMARK  115  A    between atoms: _285  and  _286
REMARK  116  A    between atoms: _289  and  _291
REMARK  117  A    between atoms: _291  and  _292
REMARK  118  A    between atoms: _291  and  _294
REMARK  119  A    between atoms: _294  and  _295
REMARK  120  A    between atoms: _298  and  _300
REMARK  121  A    between atoms: _300  and  _301
REMARK  122  A    between atoms: _300  and  _303
REMARK  123  A    between atoms: _303  and  _304
REMARK  124  A    between atoms: _307  and  _309
REMARK  125  A    between atoms: _309  and  _310
REMARK  126  A    between atoms: _309  and  _312
REMARK  127  A    between atoms: _312  and  _313
REMARK  128  A    between atoms: _316  and  _318
REMARK  129  A    between atoms: _318  and  _319
REMARK  130  A    between atoms: _318  and  _321
REMARK  131  A    between atoms: _324  and  _326
REMARK  132  A    between atoms: _326  and  _327
REMARK  133  A    between atoms: _326  and  _329
REMARK  134  A    between atoms: _329  and  _330
REMARK  135  A    between atoms: _330  and  _331
REMARK  136  A    between atoms: _331  and  _332
REMARK  137  A    between atoms: _332  and  _333
REMARK  138  A    between atoms: _337  and  _339
REMARK  139  A    between atoms: _339  and  _340
REMARK  140  A    between atoms: _339  and  _342
REMARK  141  A    between atoms: _342  and  _343
REMARK  142  A    between atoms: _343  and  _344
REMARK  143  A    between atoms: _346  and  _348
REMARK  144  A    between atoms: _348  and  _349
REMARK  145  A    between atoms: _348  and  _351
REMARK  146  A    between atoms: _351  and  _352
REMARK  147  A    between atoms: _355  and  _357
REMARK  148  A    between atoms: _357  and  _358
REMARK  149  A    between atoms: _360  and  _362
REMARK  150  A    between atoms: _362  and  _363
REMARK  151  A    between atoms: _365  and  _367
REMARK  152  A    between atoms: _367  and  _368
REMARK  153  A    between atoms: _367  and  _370
REMARK  154  A    between atoms: _370  and  _371
REMARK  155  A    between atoms: _374  and  _376
REMARK  156  A    between atoms: _376  and  _377
REMARK  157  A    between atoms: _379  and  _381
REMARK  158  A    between atoms: _381  and  _382
REMARK  159  A    between atoms: _384  and  _386
REMARK  160  A    between atoms: _386  and  _387
REMARK  161  A    between atoms: _386  and  _389
REMARK  162  A    between atoms: _389  and  _390
REMARK  163  A    between atoms: _393  and  _395
REMARK  164  A    between atoms: _395  and  _396
REMARK  165  A    between atoms: _395  and  _398
REMARK  166  A    between atoms: _401  and  _403
REMARK  167  A    between atoms: _403  and  _404
REMARK  168  A    between atoms: _403  and  _406
REMARK  169  A    between atoms: _406  and  _407
REMARK  170  A    between atoms: _410  and  _412
REMARK  171  A    between atoms: _412  and  _413
REMARK  172  A    between atoms: _412  and  _415
REMARK  173  A    between atoms: _415  and  _416
REMARK  174  A    between atoms: _420  and  _421
REMARK  175  A    between atoms: _426  and  _428
REMARK  176  A    between atoms: _428  and  _429
REMARK  177  A    between atoms: _428  and  _431
REMARK  178  A    between atoms: _434  and  _436
REMARK  179  A    between atoms: _436  and  _437
REMARK  180  A    between atoms: _436  and  _439
REMARK  181  A    between atoms: _439  and  _440
REMARK  182  A    between atoms: _445  and  _447
REMARK  183  A    between atoms: _447  and  _448
REMARK  184  A    between atoms: _447  and  _450
REMARK  185  A    between atoms: _450  and  _451
REMARK  186  A    between atoms: _454  and  _456
REMARK  187  A    between atoms: _456  and  _457
REMARK  188  A    between atoms: _456  and  _459
REMARK  189  A    between atoms: _459  and  _460
REMARK  190  A    between atoms: _463  and  _465
REMARK  191  A    between atoms: _465  and  _466
REMARK  192  A    between atoms: _468  and  _470
REMARK  193  A    between atoms: _470  and  _471
REMARK  194  A    between atoms: _470  and  _473
REMARK  195  A    between atoms: _473  and  _474
REMARK  196  A    between atoms: _474  and  _475
REMARK  197  A    between atoms: _475  and  _476
REMARK  198  A    between atoms: _485  and  _487
REMARK  199  A    between atoms: _487  and  _488
REMARK  200  A    between atoms: _487  and  _490
REMARK  201  A    between atoms: _490  and  _491
REMARK                            x       y       z     vdW  Elec       q    Type
REMARK                         _______ _______ _______ _____ _____    ______ ____
ROOT
ATOM      1  O   HOH     1      18.520  29.163   5.531  0.00  0.00    +0.000 OA
ENDROOT
TORSDOF 0
REMARK  Name = ../refined-set-2016/2qi7/2qi7_pocket.pdb
REMARK  201 active torsions:
REMARK  status: ('A' for Active; 'I' for Inactive)
REMARK    1  A    between atoms: _1  and  _3
REMARK    2  A    between atoms: _3  and  _4
REMARK    3  A    between atoms: _3  and  _6
REMARK    4  A    between atoms: _6  and  _7
REMARK    5  A    between atoms: _7  and  _8
REMARK    6  A    between atoms: _8  and  _9
REMARK    7  A    between atoms: _18  and  _20
REMARK    8  A    between atoms: _20  and  _21
REMARK    9  A    between atoms: _20  and  _23
REMARK   10  A    between atoms: _23  and  _24
REMARK   11  A    between atoms: _27  and  _29
REMARK   12  A    between atoms: _29  and  _30
REMARK   13  A    between atoms: _29  and  _32
REMARK   14  A    between atoms: _32  and  _33
REMARK   15  A    between atoms: _36  and  _38
REMARK   16  A    between atoms: _38  and  _39
REMARK   17  A    between atoms: _38  and  _41
REMARK   18  A    between atoms: _41  and  _42
REMARK   19  A    between atoms: _45  and  _47
REMARK   20  A    between atoms: _47  and  _48
REMARK   21  A    between atoms: _47  and  _50
REMARK   22  A    between atoms: _50  and  _51
REMARK   23  A    between atoms: _54  and  _56
REMARK   24  A    between atoms: _56  and  _57
REMARK   25  A    between atoms: _59  and  _61
REMARK   26  A    between atoms: _61  and  _62
REMARK   27  A    between atoms: _65  and  _67
REMARK   28  A    between atoms: _67  and  _68
REMARK   29  A    between atoms: _67  and  _70
REMARK   30  A    between atoms: _70  and  _71
REMARK   31  A    between atoms: _74  and  _76
REMARK   32  A    between atoms: _76  and  _77
REMARK   33  A    between atoms: _76  and  _79
REMARK   34  A    between atoms: _79  and  _80
REMARK   35  A    between atoms: _83  and  _85
REMARK   36  A    between atoms: _85  and  _86
REMARK   37  A    between atoms: _85  and  _88
REMARK   38  A    between atoms: _88  and  _89
REMARK   39  A    between atoms: _92  and  _94
REMARK   40  A    between atoms: _94  and  _95
REMARK   41  A    between atoms: _94  and  _97
REMARK   42  A    between atoms: _100  and  _102
REMARK   43  A    between atoms: _102  and  _103
REMARK   44  A    between atoms: _102  and  _105
REMARK   45  A    between atoms: _105  and  _106
REMARK   46  A    between atoms: _109  and  _111
REMARK   47  A    between atoms: _111  and  _112
REMARK   48  A    between atoms: _114  and  _116
REMARK   49  A    between atoms: _116  and  _117
REMARK   50  A    between atoms: _119  and  _121
REMARK   51  A    between atoms: _121  and  _122
REMARK   52  A    between atoms: _121  and  _124
REMARK   53  A    between atoms: _124  and  _125
REMARK   54  A    between atoms: _128  and  _130
REMARK   55  A    between atoms: _130  and  _131
REMARK   56  A    between atoms: _133  and  _135
REMARK   57  A    between atoms: _135  and  _136
REMARK   58  A    between atoms: _138  and  _140
REMARK   59  A    between atoms: _140  and  _141
REMARK   60  A    between atoms: _140  and  _143
REMARK   61  A    between atoms: _143  and  _144
REMARK   62  A    between atoms: _150  and  _152
REMARK   63  A    between atoms: _152  and  _153
REMARK   64  A    between atoms: _152  and  _155
REMARK   65  A    between atoms: _155  and  _156
REMARK   66  A    between atoms: _160  and  _161
REMARK   67  A    between atoms: _166  and  _168
REMARK   68  A    between atoms: _168  and  _169
REMARK   69  A    between atoms: _168  and  _171
REMARK   70  A    between atoms: _174  and  _176
REMARK   71  A    between atoms: _176  and  _177
REMARK   72  A    between atoms: _176  and  _179
REMARK   73  A    between atoms: _179  and  _180
REMARK   74  A    between atoms: _185  and  _187
REMARK   75  A    between atoms: _187  and  _188
REMARK   76  A    between atoms: _187  and  _190
REMARK   77  A    between atoms: _190  and  _191
REMARK   78  A    between atoms: _194  and  _196
REMARK   79  A    between atoms: _196  and  _197
REMARK   80  A    between atoms: _196  and  _199
REMARK   81  A    between atoms: _199  and  _200
REMARK   82  A    between atoms: _203  and  _205
REMARK   83  A    between atoms: _205  and  _206
REMARK   84  A    between atoms: _208  and  _210
REMARK   85  A    between atoms: _210  and  _211
REMARK   86  A    between atoms: _210  and  _213
REMARK   87  A    between atoms: _213  and  _214
REMARK   88  A    between atoms: _214  and  _215
REMARK   89  A    between atoms: _215  and  _216
REMARK   90  A    between atoms: _225  and  _227
REMARK   91  A    between atoms: _227  and  _228
REMARK   92  A    between atoms: _227  and  _230
REMARK   93  A    between atoms: _230  and  _231
REMARK   94  A    between atoms: _231  and  _232
REMARK   95  A    between atoms: _232  and  _233
REMARK   96  A    between atoms: _242  and  _244
REMARK   97  A    between atoms: _244  and  _245
REMARK   98  A    between atoms: _244  and  _247
REMARK   99  A    between atoms: _247  and  _248
REMARK  100  A    between atoms: _251  and  _253
REMARK  101  A    between atoms: _253  and  _254
REMARK  102  A    between atoms: _253  and  _256
REMARK  103  A    between atoms: _256  and  _257
REMARK  104  A    between atoms: _260  and  _262
REMARK  105  A    between atoms: _262  and  _263
REMARK  106  A    between atoms: _262  and  _265
REMARK  107  A    between atoms: _265  and  _266
REMARK  108  A    between atoms: _269  and  _271
REMARK  109  A    between atoms: _271  and  _272
REMARK  110  A    between atoms: _271  and  _274
REMARK  111  A    between atoms: _274  and  _275
REMARK  112  A    between atoms: _278  and  _280
REMARK  113  A    between atoms: _280  and  _281
REMARK  114  A    between atoms: _283  and  _285
REMARK  115  A    between atoms: _285  and  _286
REMARK  116  A    between atoms: _289  and  _291
REMARK  117  A    between atoms: _291  and  _292
REMARK  118  A    between atoms: _291  and  _294
REMARK  119  A    between atoms: _294  and  _295
REMARK  120  A    between atoms: _298  and  _300
REMARK  121  A    between atoms: _300  and  _301
REMARK  122  A    between atoms: _300  and  _303
REMARK  123  A    between atoms: _303  and  _304
REMARK  124  A    between atoms: _307  and  _309
REMARK  125  A    between atoms: _309  and  _310
REMARK  126  A    between atoms: _309  and  _312
REMARK  127  A    between atoms: _312  and  _313
REMARK  128  A    between atoms: _316  and  _318
REMARK  129  A    between atoms: _318  and  _319
REMARK  130  A    between atoms: _318  and  _321
REMARK  131  A    between atoms: _324  and  _326
REMARK  132  A    between atoms: _326  and  _327
REMARK  133  A    between atoms: _326  and  _329
REMARK  134  A    between atoms: _329  and  _330
REMARK  135  A    between atoms: _330  and  _331
REMARK  136  A    between atoms: _331  and  _332
REMARK  137  A    between atoms: _332  and  _333
REMARK  138  A    between atoms: _337  and  _339
REMARK  139  A    between atoms: _339  and  _340
REMARK  140  A    between atoms: _339  and  _342
REMARK  141  A    between atoms: _342  and  _343
REMARK  142  A    between atoms: _343  and  _344
REMARK  143  A    between atoms: _346  and  _348
REMARK  144  A    between atoms: _348  and  _349
REMARK  145  A    between atoms: _348  and  _351
REMARK  146  A    between atoms: _351  and  _352
REMARK  147  A    between atoms: _355  and  _357
REMARK  148  A    between atoms: _357  and  _358
REMARK  149  A    between atoms: _360  and  _362
REMARK  150  A    between atoms: _362  and  _363
REMARK  151  A    between atoms: _365  and  _367
REMARK  152  A    between atoms: _367  and  _368
REMARK  153  A    between atoms: _367  and  _370
REMARK  154  A    between atoms: _370  and  _371
REMARK  155  A    between atoms: _374  and  _376
REMARK  156  A    between atoms: _376  and  _377
REMARK  157  A    between atoms: _379  and  _381
REMARK  158  A    between atoms: _381  and  _382
REMARK  159  A    between atoms: _384  and  _386
REMARK  160  A    between atoms: _386  and  _387
REMARK  161  A    between atoms: _386  and  _389
REMARK  162  A    between atoms: _389  and  _390
REMARK  163  A    between atoms: _393  and  _395
REMARK  164  A    between atoms: _395  and  _396
REMARK  165  A    between atoms: _395  and  _398
REMARK  166  A    between atoms: _401  and  _403
REMARK  167  A    between atoms: _403  and  _404
REMARK  168  A    between atoms: _403  and  _406
REMARK  169  A    between atoms: _406  and  _407
REMARK  170  A    between atoms: _410  and  _412
REMARK  171  A    between atoms: _412  and  _413
REMARK  172  A    between atoms: _412  and  _415
REMARK  173  A    between atoms: _415  and  _416
REMARK  174  A    between atoms: _420  and  _421
REMARK  175  A    between atoms: _426  and  _428
REMARK  176  A    between atoms: _428  and  _429
REMARK  177  A    between atoms: _428  and  _431
REMARK  178  A    between atoms: _434  and  _436
REMARK  179  A    between atoms: _436  and  _437
REMARK  180  A    between atoms: _436  and  _439
REMARK  181  A    between atoms: _439  and  _440
REMARK  182  A    between atoms: _445  and  _447
REMARK  183  A    between atoms: _447  and  _448
REMARK  184  A    between atoms: _447  and  _450
REMARK  185  A    between atoms: _450  and  _451
REMARK  186  A    between atoms: _454  and  _456
REMARK  187  A    between atoms: _456  and  _457
REMARK  188  A    between atoms: _456  and  _459
REMARK  189  A    between atoms: _459  and  _460
REMARK  190  A    between atoms: _463  and  _465
REMARK  191  A    between atoms: _465  and  _466
REMARK  192  A    between atoms: _468  and  _470
REMARK  193  A    between atoms: _470  and  _471
REMARK  194  A    between atoms: _470  and  _473
REMARK  195  A    between atoms: _473  and  _474
REMARK  196  A    between atoms: _474  and  _475
REMARK  197  A    between atoms: _475  and  _476
REMARK  198  A    between atoms: _485  and  _487
REMARK  199  A    between atoms: _487  and  _488
REMARK  200  A    between atoms: _487  and  _490
REMARK  201  A    between atoms: _490  and  _491
REMARK                            x       y       z     vdW  Elec       q    Type
REMARK                         _______ _______ _______ _____ _____    ______ ____
ROOT
ATOM      1  O   HOH     1      26.248  18.780  13.563  0.00  0.00    +0.000 OA
ENDROOT
TORSDOF 0
REMARK  Name = ../refined-set-2016/2qi7/2qi7_pocket.pdb
REMARK  201 active torsions:
REMARK  status: ('A' for Active; 'I' for Inactive)
REMARK    1  A    between atoms: _1  and  _3
REMARK    2  A    between atoms: _3  and  _4
REMARK    3  A    between atoms: _3  and  _6
REMARK    4  A    between atoms: _6  and  _7
REMARK    5  A    between atoms: _7  and  _8
REMARK    6  A    between atoms: _8  and  _9
REMARK    7  A    between atoms: _18  and  _20
REMARK    8  A    between atoms: _20  and  _21
REMARK    9  A    between atoms: _20  and  _23
REMARK   10  A    between atoms: _23  and  _24
REMARK   11  A    between atoms: _27  and  _29
REMARK   12  A    between atoms: _29  and  _30
REMARK   13  A    between atoms: _29  and  _32
REMARK   14  A    between atoms: _32  and  _33
REMARK   15  A    between atoms: _36  and  _38
REMARK   16  A    between atoms: _38  and  _39
REMARK   17  A    between atoms: _38  and  _41
REMARK   18  A    between atoms: _41  and  _42
REMARK   19  A    between atoms: _45  and  _47
REMARK   20  A    between atoms: _47  and  _48
REMARK   21  A    between atoms: _47  and  _50
REMARK   22  A    between atoms: _50  and  _51
REMARK   23  A    between atoms: _54  and  _56
REMARK   24  A    between atoms: _56  and  _57
REMARK   25  A    between atoms: _59  and  _61
REMARK   26  A    between atoms: _61  and  _62
REMARK   27  A    between atoms: _65  and  _67
REMARK   28  A    between atoms: _67  and  _68
REMARK   29  A    between atoms: _67  and  _70
REMARK   30  A    between atoms: _70  and  _71
REMARK   31  A    between atoms: _74  and  _76
REMARK   32  A    between atoms: _76  and  _77
REMARK   33  A    between atoms: _76  and  _79
REMARK   34  A    between atoms: _79  and  _80
REMARK   35  A    between atoms: _83  and  _85
REMARK   36  A    between atoms: _85  and  _86
REMARK   37  A    between atoms: _85  and  _88
REMARK   38  A    between atoms: _88  and  _89
REMARK   39  A    between atoms: _92  and  _94
REMARK   40  A    between atoms: _94  and  _95
REMARK   41  A    between atoms: _94  and  _97
REMARK   42  A    between atoms: _100  and  _102
REMARK   43  A    between atoms: _102  and  _103
REMARK   44  A    between atoms: _102  and  _105
REMARK   45  A    between atoms: _105  and  _106
REMARK   46  A    between atoms: _109  and  _111
REMARK   47  A    between atoms: _111  and  _112
REMARK   48  A    between atoms: _114  and  _116
REMARK   49  A    between atoms: _116  and  _117
REMARK   50  A    between atoms: _119  and  _121
REMARK   51  A    between atoms: _121  and  _122
REMARK   52  A    between atoms: _121  and  _124
REMARK   53  A    between atoms: _124  and  _125
REMARK   54  A    between atoms: _128  and  _130
REMARK   55  A    between atoms: _130  and  _131
REMARK   56  A    between atoms: _133  and  _135
REMARK   57  A    between atoms: _135  and  _136
REMARK   58  A    between atoms: _138  and  _140
REMARK   59  A    between atoms: _140  and  _141
REMARK   60  A    between atoms: _140  and  _143
REMARK   61  A    between atoms: _143  and  _144
REMARK   62  A    between atoms: _150  and  _152
REMARK   63  A    between atoms: _152  and  _153
REMARK   64  A    between atoms: _152  and  _155
REMARK   65  A    between atoms: _155  and  _156
REMARK   66  A    between atoms: _160  and  _161
REMARK   67  A    between atoms: _166  and  _168
REMARK   68  A    between atoms: _168  and  _169
REMARK   69  A    between atoms: _168  and  _171
REMARK   70  A    between atoms: _174  and  _176
REMARK   71  A    between atoms: _176  and  _177
REMARK   72  A    between atoms: _176  and  _179
REMARK   73  A    between atoms: _179  and  _180
REMARK   74  A    between atoms: _185  and  _187
REMARK   75  A    between atoms: _187  and  _188
REMARK   76  A    between atoms: _187  and  _190
REMARK   77  A    between atoms: _190  and  _191
REMARK   78  A    between atoms: _194  and  _196
REMARK   79  A    between atoms: _196  and  _197
REMARK   80  A    between atoms: _196  and  _199
REMARK   81  A    between atoms: _199  and  _200
REMARK   82  A    between atoms: _203  and  _205
REMARK   83  A    between atoms: _205  and  _206
REMARK   84  A    between atoms: _208  and  _210
REMARK   85  A    between atoms: _210  and  _211
REMARK   86  A    between atoms: _210  and  _213
REMARK   87  A    between atoms: _213  and  _214
REMARK   88  A    between atoms: _214  and  _215
REMARK   89  A    between atoms: _215  and  _216
REMARK   90  A    between atoms: _225  and  _227
REMARK   91  A    between atoms: _227  and  _228
REMARK   92  A    between atoms: _227  and  _230
REMARK   93  A    between atoms: _230  and  _231
REMARK   94  A    between atoms: _231  and  _232
REMARK   95  A    between atoms: _232  and  _233
REMARK   96  A    between atoms: _242  and  _244
REMARK   97  A    between atoms: _244  and  _245
REMARK   98  A    between atoms: _244  and  _247
REMARK   99  A    between atoms: _247  and  _248
REMARK  100  A    between atoms: _251  and  _253
REMARK  101  A    between atoms: _253  and  _254
REMARK  102  A    between atoms: _253  and  _256
REMARK  103  A    between atoms: _256  and  _257
REMARK  104  A    between atoms: _260  and  _262
REMARK  105  A    between atoms: _262  and  _263
REMARK  106  A    between atoms: _262  and  _265
REMARK  107  A    between atoms: _265  and  _266
REMARK  108  A    between atoms: _269  and  _271
REMARK  109  A    between atoms: _271  and  _272
REMARK  110  A    between atoms: _271  and  _274
REMARK  111  A    between atoms: _274  and  _275
REMARK  112  A    between atoms: _278  and  _280
REMARK  113  A    between atoms: _280  and  _281
REMARK  114  A    between atoms: _283  and  _285
REMARK  115  A    between atoms: _285  and  _286
REMARK  116  A    between atoms: _289  and  _291
REMARK  117  A    between atoms: _291  and  _292
REMARK  118  A    between atoms: _291  and  _294
REMARK  119  A    between atoms: _294  and  _295
REMARK  120  A    between atoms: _298  and  _300
REMARK  121  A    between atoms: _300  and  _301
REMARK  122  A    between atoms: _300  and  _303
REMARK  123  A    between atoms: _303  and  _304
REMARK  124  A    between atoms: _307  and  _309
REMARK  125  A    between atoms: _309  and  _310
REMARK  126  A    between atoms: _309  and  _312
REMARK  127  A    between atoms: _312  and  _313
REMARK  128  A    between atoms: _316  and  _318
REMARK  129  A    between atoms: _318  and  _319
REMARK  130  A    between atoms: _318  and  _321
REMARK  131  A    between atoms: _324  and  _326
REMARK  132  A    between atoms: _326  and  _327
REMARK  133  A    between atoms: _326  and  _329
REMARK  134  A    between atoms: _329  and  _330
REMARK  135  A    between atoms: _330  and  _331
REMARK  136  A    between atoms: _331  and  _332
REMARK  137  A    between atoms: _332  and  _333
REMARK  138  A    between atoms: _337  and  _339
REMARK  139  A    between atoms: _339  and  _340
REMARK  140  A    between atoms: _339  and  _342
REMARK  141  A    between atoms: _342  and  _343
REMARK  142  A    between atoms: _343  and  _344
REMARK  143  A    between atoms: _346  and  _348
REMARK  144  A    between atoms: _348  and  _349
REMARK  145  A    between atoms: _348  and  _351
REMARK  146  A    between atoms: _351  and  _352
REMARK  147  A    between atoms: _355  and  _357
REMARK  148  A    between atoms: _357  and  _358
REMARK  149  A    between atoms: _360  and  _362
REMARK  150  A    between atoms: _362  and  _363
REMARK  151  A    between atoms: _365  and  _367
REMARK  152  A    between atoms: _367  and  _368
REMARK  153  A    between atoms: _367  and  _370
REMARK  154  A    between atoms: _370  and  _371
REMARK  155  A    between atoms: _374  and  _376
REMARK  156  A    between atoms: _376  and  _377
REMARK  157  A    between atoms: _379  and  _381
REMARK  158  A    between atoms: _381  and  _382
REMARK  159  A    between atoms: _384  and  _386
REMARK  160  A    between atoms: _386  and  _387
REMARK  161  A    between atoms: _386  and  _389
REMARK  162  A    between atoms: _389  and  _390
REMARK  163  A    between atoms: _393  and  _395
REMARK  164  A    between atoms: _395  and  _396
REMARK  165  A    between atoms: _395  and  _398
REMARK  166  A    between atoms: _401  and  _403
REMARK  167  A    between atoms: _403  and  _404
REMARK  168  A    between atoms: _403  and  _406
REMARK  169  A    between atoms: _406  and  _407
REMARK  170  A    between atoms: _410  and  _412
REMARK  171  A    between atoms: _412  and  _413
REMARK  172  A    between atoms: _412  and  _415
REMARK  173  A    between atoms: _415  and  _416
REMARK  174  A    between atoms: _420  and  _421
REMARK  175  A    between atoms: _426  and  _428
REMARK  176  A    between atoms: _428  and  _429
REMARK  177  A    between atoms: _428  and  _431
REMARK  178  A    between atoms: _434  and  _436
REMARK  179  A    between atoms: _436  and  _437
REMARK  180  A    between atoms: _436  and  _439
REMARK  181  A    between atoms: _439  and  _440
REMARK  182  A    between atoms: _445  and  _447
REMARK  183  A    between atoms: _447  and  _448
REMARK  184  A    between atoms: _447  and  _450
REMARK  185  A    between atoms: _450  and  _451
REMARK  186  A    between atoms: _454  and  _456
REMARK  187  A    between atoms: _456  and  _457
REMARK  188  A    between atoms: _456  and  _459
REMARK  189  A    between atoms: _459  and  _460
REMARK  190  A    between atoms: _463  and  _465
REMARK  191  A    between atoms: _465  and  _466
REMARK  192  A    between atoms: _468  and  _470
REMARK  193  A    between atoms: _470  and  _471
REMARK  194  A    between atoms: _470  and  _473
REMARK  195  A    between atoms: _473  and  _474
REMARK  196  A    between atoms: _474  and  _475
REMARK  197  A    between atoms: _475  and  _476
REMARK  198  A    between atoms: _485  and  _487
REMARK  199  A    between atoms: _487  and  _488
REMARK  200  A    between atoms: _487  and  _490
REMARK  201  A    between atoms: _490  and  _491
REMARK                            x       y       z     vdW  Elec       q    Type
REMARK                         _______ _______ _______ _____ _____    ______ ____
ROOT
ATOM      1  O   HOH     1      22.454  18.160   9.905  0.00  0.00    +0.000 OA
ENDROOT
TORSDOF 0
REMARK  Name = ../refined-set-2016/2qi7/2qi7_pocket.pdb
REMARK  201 active torsions:
REMARK  status: ('A' for Active; 'I' for Inactive)
REMARK    1  A    between atoms: _1  and  _3
REMARK    2  A    between atoms: _3  and  _4
REMARK    3  A    between atoms: _3  and  _6
REMARK    4  A    between atoms: _6  and  _7
REMARK    5  A    between atoms: _7  and  _8
REMARK    6  A    between atoms: _8  and  _9
REMARK    7  A    between atoms: _18  and  _20
REMARK    8  A    between atoms: _20  and  _21
REMARK    9  A    between atoms: _20  and  _23
REMARK   10  A    between atoms: _23  and  _24
REMARK   11  A    between atoms: _27  and  _29
REMARK   12  A    between atoms: _29  and  _30
REMARK   13  A    between atoms: _29  and  _32
REMARK   14  A    between atoms: _32  and  _33
REMARK   15  A    between atoms: _36  and  _38
REMARK   16  A    between atoms: _38  and  _39
REMARK   17  A    between atoms: _38  and  _41
REMARK   18  A    between atoms: _41  and  _42
REMARK   19  A    between atoms: _45  and  _47
REMARK   20  A    between atoms: _47  and  _48
REMARK   21  A    between atoms: _47  and  _50
REMARK   22  A    between atoms: _50  and  _51
REMARK   23  A    between atoms: _54  and  _56
REMARK   24  A    between atoms: _56  and  _57
REMARK   25  A    between atoms: _59  and  _61
REMARK   26  A    between atoms: _61  and  _62
REMARK   27  A    between atoms: _65  and  _67
REMARK   28  A    between atoms: _67  and  _68
REMARK   29  A    between atoms: _67  and  _70
REMARK   30  A    between atoms: _70  and  _71
REMARK   31  A    between atoms: _74  and  _76
REMARK   32  A    between atoms: _76  and  _77
REMARK   33  A    between atoms: _76  and  _79
REMARK   34  A    between atoms: _79  and  _80
REMARK   35  A    between atoms: _83  and  _85
REMARK   36  A    between atoms: _85  and  _86
REMARK   37  A    between atoms: _85  and  _88
REMARK   38  A    between atoms: _88  and  _89
REMARK   39  A    between atoms: _92  and  _94
REMARK   40  A    between atoms: _94  and  _95
REMARK   41  A    between atoms: _94  and  _97
REMARK   42  A    between atoms: _100  and  _102
REMARK   43  A    between atoms: _102  and  _103
REMARK   44  A    between atoms: _102  and  _105
REMARK   45  A    between atoms: _105  and  _106
REMARK   46  A    between atoms: _109  and  _111
REMARK   47  A    between atoms: _111  and  _112
REMARK   48  A    between atoms: _114  and  _116
REMARK   49  A    between atoms: _116  and  _117
REMARK   50  A    between atoms: _119  and  _121
REMARK   51  A    between atoms: _121  and  _122
REMARK   52  A    between atoms: _121  and  _124
REMARK   53  A    between atoms: _124  and  _125
REMARK   54  A    between atoms: _128  and  _130
REMARK   55  A    between atoms: _130  and  _131
REMARK   56  A    between atoms: _133  and  _135
REMARK   57  A    between atoms: _135  and  _136
REMARK   58  A    between atoms: _138  and  _140
REMARK   59  A    between atoms: _140  and  _141
REMARK   60  A    between atoms: _140  and  _143
REMARK   61  A    between atoms: _143  and  _144
REMARK   62  A    between atoms: _150  and  _152
REMARK   63  A    between atoms: _152  and  _153
REMARK   64  A    between atoms: _152  and  _155
REMARK   65  A    between atoms: _155  and  _156
REMARK   66  A    between atoms: _160  and  _161
REMARK   67  A    between atoms: _166  and  _168
REMARK   68  A    between atoms: _168  and  _169
REMARK   69  A    between atoms: _168  and  _171
REMARK   70  A    between atoms: _174  and  _176
REMARK   71  A    between atoms: _176  and  _177
REMARK   72  A    between atoms: _176  and  _179
REMARK   73  A    between atoms: _179  and  _180
REMARK   74  A    between atoms: _185  and  _187
REMARK   75  A    between atoms: _187  and  _188
REMARK   76  A    between atoms: _187  and  _190
REMARK   77  A    between atoms: _190  and  _191
REMARK   78  A    between atoms: _194  and  _196
REMARK   79  A    between atoms: _196  and  _197
REMARK   80  A    between atoms: _196  and  _199
REMARK   81  A    between atoms: _199  and  _200
REMARK   82  A    between atoms: _203  and  _205
REMARK   83  A    between atoms: _205  and  _206
REMARK   84  A    between atoms: _208  and  _210
REMARK   85  A    between atoms: _210  and  _211
REMARK   86  A    between atoms: _210  and  _213
REMARK   87  A    between atoms: _213  and  _214
REMARK   88  A    between atoms: _214  and  _215
REMARK   89  A    between atoms: _215  and  _216
REMARK   90  A    between atoms: _225  and  _227
REMARK   91  A    between atoms: _227  and  _228
REMARK   92  A    between atoms: _227  and  _230
REMARK   93  A    between atoms: _230  and  _231
REMARK   94  A    between atoms: _231  and  _232
REMARK   95  A    between atoms: _232  and  _233
REMARK   96  A    between atoms: _242  and  _244
REMARK   97  A    between atoms: _244  and  _245
REMARK   98  A    between atoms: _244  and  _247
REMARK   99  A    between atoms: _247  and  _248
REMARK  100  A    between atoms: _251  and  _253
REMARK  101  A    between atoms: _253  and  _254
REMARK  102  A    between atoms: _253  and  _256
REMARK  103  A    between atoms: _256  and  _257
REMARK  104  A    between atoms: _260  and  _262
REMARK  105  A    between atoms: _262  and  _263
REMARK  106  A    between atoms: _262  and  _265
REMARK  107  A    between atoms: _265  and  _266
REMARK  108  A    between atoms: _269  and  _271
REMARK  109  A    between atoms: _271  and  _272
REMARK  110  A    between atoms: _271  and  _274
REMARK  111  A    between atoms: _274  and  _275
REMARK  112  A    between atoms: _278  and  _280
REMARK  113  A    between atoms: _280  and  _281
REMARK  114  A    between atoms: _283  and  _285
REMARK  115  A    between atoms: _285  and  _286
REMARK  116  A    between atoms: _289  and  _291
REMARK  117  A    between atoms: _291  and  _292
REMARK  118  A    between atoms: _291  and  _294
REMARK  119  A    between atoms: _294  and  _295
REMARK  120  A    between atoms: _298  and  _300
REMARK  121  A    between atoms: _300  and  _301
REMARK  122  A    between atoms: _300  and  _303
REMARK  123  A    between atoms: _303  and  _304
REMARK  124  A    between atoms: _307  and  _309
REMARK  125  A    between atoms: _309  and  _310
REMARK  126  A    between atoms: _309  and  _312
REMARK  127  A    between atoms: _312  and  _313
REMARK  128  A    between atoms: _316  and  _318
REMARK  129  A    between atoms: _318  and  _319
REMARK  130  A    between atoms: _318  and  _321
REMARK  131  A    between atoms: _324  and  _326
REMARK  132  A    between atoms: _326  and  _327
REMARK  133  A    between atoms: _326  and  _329
REMARK  134  A    between atoms: _329  and  _330
REMARK  135  A    between atoms: _330  and  _331
REMARK  136  A    between atoms: _331  and  _332
REMARK  137  A    between atoms: _332  and  _333
REMARK  138  A    between atoms: _337  and  _339
REMARK  139  A    between atoms: _339  and  _340
REMARK  140  A    between atoms: _339  and  _342
REMARK  141  A    between atoms: _342  and  _343
REMARK  142  A    between atoms: _343  and  _344
REMARK  143  A    between atoms: _346  and  _348
REMARK  144  A    between atoms: _348  and  _349
REMARK  145  A    between atoms: _348  and  _351
REMARK  146  A    between atoms: _351  and  _352
REMARK  147  A    between atoms: _355  and  _357
REMARK  148  A    between atoms: _357  and  _358
REMARK  149  A    between atoms: _360  and  _362
REMARK  150  A    between atoms: _362  and  _363
REMARK  151  A    between atoms: _365  and  _367
REMARK  152  A    between atoms: _367  and  _368
REMARK  153  A    between atoms: _367  and  _370
REMARK  154  A    between atoms: _370  and  _371
REMARK  155  A    between atoms: _374  and  _376
REMARK  156  A    between atoms: _376  and  _377
REMARK  157  A    between atoms: _379  and  _381
REMARK  158  A    between atoms: _381  and  _382
REMARK  159  A    between atoms: _384  and  _386
REMARK  160  A    between atoms: _386  and  _387
REMARK  161  A    between atoms: _386  and  _389
REMARK  162  A    between atoms: _389  and  _390
REMARK  163  A    between atoms: _393  and  _395
REMARK  164  A    between atoms: _395  and  _396
REMARK  165  A    between atoms: _395  and  _398
REMARK  166  A    between atoms: _401  and  _403
REMARK  167  A    between atoms: _403  and  _404
REMARK  168  A    between atoms: _403  and  _406
REMARK  169  A    between atoms: _406  and  _407
REMARK  170  A    between atoms: _410  and  _412
REMARK  171  A    between atoms: _412  and  _413
REMARK  172  A    between atoms: _412  and  _415
REMARK  173  A    between atoms: _415  and  _416
REMARK  174  A    between atoms: _420  and  _421
REMARK  175  A    between atoms: _426  and  _428
REMARK  176  A    between atoms: _428  and  _429
REMARK  177  A    between atoms: _428  and  _431
REMARK  178  A    between atoms: _434  and  _436
REMARK  179  A    between atoms: _436  and  _437
REMARK  180  A    between atoms: _436  and  _439
REMARK  181  A    between atoms: _439  and  _440
REMARK  182  A    between atoms: _445  and  _447
REMARK  183  A    between atoms: _447  and  _448
REMARK  184  A    between atoms: _447  and  _450
REMARK  185  A    between atoms: _450  and  _451
REMARK  186  A    between atoms: _454  and  _456
REMARK  187  A    between atoms: _456  and  _457
REMARK  188  A    between atoms: _456  and  _459
REMARK  189  A    between atoms: _459  and  _460
REMARK  190  A    between atoms: _463  and  _465
REMARK  191  A    between atoms: _465  and  _466
REMARK  192  A    between atoms: _468  and  _470
REMARK  193  A    between atoms: _470  and  _471
REMARK  194  A    between atoms: _470  and  _473
REMARK  195  A    between atoms: _473  and  _474
REMARK  196  A    between atoms: _474  and  _475
REMARK  197  A    between atoms: _475  and  _476
REMARK  198  A    between atoms: _485  and  _487
REMARK  199  A    between atoms: _487  and  _488
REMARK  200  A    between atoms: _487  and  _490
REMARK  201  A    between atoms: _490  and  _491
REMARK                            x       y       z     vdW  Elec       q    Type
REMARK                         _______ _______ _______ _____ _____    ______ ____
ROOT
ATOM      1  O   HOH     1      20.120  32.317  23.636  0.00  0.00    +0.000 OA
ENDROOT
TORSDOF 0
REMARK  Name = ../refined-set-2016/2qi7/2qi7_pocket.pdb
REMARK  201 active torsions:
REMARK  status: ('A' for Active; 'I' for Inactive)
REMARK    1  A    between atoms: _1  and  _3
REMARK    2  A    between atoms: _3  and  _4
REMARK    3  A    between atoms: _3  and  _6
REMARK    4  A    between atoms: _6  and  _7
REMARK    5  A    between atoms: _7  and  _8
REMARK    6  A    between atoms: _8  and  _9
REMARK    7  A    between atoms: _18  and  _20
REMARK    8  A    between atoms: _20  and  _21
REMARK    9  A    between atoms: _20  and  _23
REMARK   10  A    between atoms: _23  and  _24
REMARK   11  A    between atoms: _27  and  _29
REMARK   12  A    between atoms: _29  and  _30
REMARK   13  A    between atoms: _29  and  _32
REMARK   14  A    between atoms: _32  and  _33
REMARK   15  A    between atoms: _36  and  _38
REMARK   16  A    between atoms: _38  and  _39
REMARK   17  A    between atoms: _38  and  _41
REMARK   18  A    between atoms: _41  and  _42
REMARK   19  A    between atoms: _45  and  _47
REMARK   20  A    between atoms: _47  and  _48
REMARK   21  A    between atoms: _47  and  _50
REMARK   22  A    between atoms: _50  and  _51
REMARK   23  A    between atoms: _54  and  _56
REMARK   24  A    between atoms: _56  and  _57
REMARK   25  A    between atoms: _59  and  _61
REMARK   26  A    between atoms: _61  and  _62
REMARK   27  A    between atoms: _65  and  _67
REMARK   28  A    between atoms: _67  and  _68
REMARK   29  A    between atoms: _67  and  _70
REMARK   30  A    between atoms: _70  and  _71
REMARK   31  A    between atoms: _74  and  _76
REMARK   32  A    between atoms: _76  and  _77
REMARK   33  A    between atoms: _76  and  _79
REMARK   34  A    between atoms: _79  and  _80
REMARK   35  A    between atoms: _83  and  _85
REMARK   36  A    between atoms: _85  and  _86
REMARK   37  A    between atoms: _85  and  _88
REMARK   38  A    between atoms: _88  and  _89
REMARK   39  A    between atoms: _92  and  _94
REMARK   40  A    between atoms: _94  and  _95
REMARK   41  A    between atoms: _94  and  _97
REMARK   42  A    between atoms: _100  and  _102
REMARK   43  A    between atoms: _102  and  _103
REMARK   44  A    between atoms: _102  and  _105
REMARK   45  A    between atoms: _105  and  _106
REMARK   46  A    between atoms: _109  and  _111
REMARK   47  A    between atoms: _111  and  _112
REMARK   48  A    between atoms: _114  and  _116
REMARK   49  A    between atoms: _116  and  _117
REMARK   50  A    between atoms: _119  and  _121
REMARK   51  A    between atoms: _121  and  _122
REMARK   52  A    between atoms: _121  and  _124
REMARK   53  A    between atoms: _124  and  _125
REMARK   54  A    between atoms: _128  and  _130
REMARK   55  A    between atoms: _130  and  _131
REMARK   56  A    between atoms: _133  and  _135
REMARK   57  A    between atoms: _135  and  _136
REMARK   58  A    between atoms: _138  and  _140
REMARK   59  A    between atoms: _140  and  _141
REMARK   60  A    between atoms: _140  and  _143
REMARK   61  A    between atoms: _143  and  _144
REMARK   62  A    between atoms: _150  and  _152
REMARK   63  A    between atoms: _152  and  _153
REMARK   64  A    between atoms: _152  and  _155
REMARK   65  A    between atoms: _155  and  _156
REMARK   66  A    between atoms: _160  and  _161
REMARK   67  A    between atoms: _166  and  _168
REMARK   68  A    between atoms: _168  and  _169
REMARK   69  A    between atoms: _168  and  _171
REMARK   70  A    between atoms: _174  and  _176
REMARK   71  A    between atoms: _176  and  _177
REMARK   72  A    between atoms: _176  and  _179
REMARK   73  A    between atoms: _179  and  _180
REMARK   74  A    between atoms: _185  and  _187
REMARK   75  A    between atoms: _187  and  _188
REMARK   76  A    between atoms: _187  and  _190
REMARK   77  A    between atoms: _190  and  _191
REMARK   78  A    between atoms: _194  and  _196
REMARK   79  A    between atoms: _196  and  _197
REMARK   80  A    between atoms: _196  and  _199
REMARK   81  A    between atoms: _199  and  _200
REMARK   82  A    between atoms: _203  and  _205
REMARK   83  A    between atoms: _205  and  _206
REMARK   84  A    between atoms: _208  and  _210
REMARK   85  A    between atoms: _210  and  _211
REMARK   86  A    between atoms: _210  and  _213
REMARK   87  A    between atoms: _213  and  _214
REMARK   88  A    between atoms: _214  and  _215
REMARK   89  A    between atoms: _215  and  _216
REMARK   90  A    between atoms: _225  and  _227
REMARK   91  A    between atoms: _227  and  _228
REMARK   92  A    between atoms: _227  and  _230
REMARK   93  A    between atoms: _230  and  _231
REMARK   94  A    between atoms: _231  and  _232
REMARK   95  A    between atoms: _232  and  _233
REMARK   96  A    between atoms: _242  and  _244
REMARK   97  A    between atoms: _244  and  _245
REMARK   98  A    between atoms: _244  and  _247
REMARK   99  A    between atoms: _247  and  _248
REMARK  100  A    between atoms: _251  and  _253
REMARK  101  A    between atoms: _253  and  _254
REMARK  102  A    between atoms: _253  and  _256
REMARK  103  A    between atoms: _256  and  _257
REMARK  104  A    between atoms: _260  and  _262
REMARK  105  A    between atoms: _262  and  _263
REMARK  106  A    between atoms: _262  and  _265
REMARK  107  A    between atoms: _265  and  _266
REMARK  108  A    between atoms: _269  and  _271
REMARK  109  A    between atoms: _271  and  _272
REMARK  110  A    between atoms: _271  and  _274
REMARK  111  A    between atoms: _274  and  _275
REMARK  112  A    between atoms: _278  and  _280
REMARK  113  A    between atoms: _280  and  _281
REMARK  114  A    between atoms: _283  and  _285
REMARK  115  A    between atoms: _285  and  _286
REMARK  116  A    between atoms: _289  and  _291
REMARK  117  A    between atoms: _291  and  _292
REMARK  118  A    between atoms: _291  and  _294
REMARK  119  A    between atoms: _294  and  _295
REMARK  120  A    between atoms: _298  and  _300
REMARK  121  A    between atoms: _300  and  _301
REMARK  122  A    between atoms: _300  and  _303
REMARK  123  A    between atoms: _303  and  _304
REMARK  124  A    between atoms: _307  and  _309
REMARK  125  A    between atoms: _309  and  _310
REMARK  126  A    between atoms: _309  and  _312
REMARK  127  A    between atoms: _312  and  _313
REMARK  128  A    between atoms: _316  and  _318
REMARK  129  A    between atoms: _318  and  _319
REMARK  130  A    between atoms: _318  and  _321
REMARK  131  A    between atoms: _324  and  _326
REMARK  132  A    between atoms: _326  and  _327
REMARK  133  A    between atoms: _326  and  _329
REMARK  134  A    between atoms: _329  and  _330
REMARK  135  A    between atoms: _330  and  _331
REMARK  136  A    between atoms: _331  and  _332
REMARK  137  A    between atoms: _332  and  _333
REMARK  138  A    between atoms: _337  and  _339
REMARK  139  A    between atoms: _339  and  _340
REMARK  140  A    between atoms: _339  and  _342
REMARK  141  A    between atoms: _342  and  _343
REMARK  142  A    between atoms: _343  and  _344
REMARK  143  A    between atoms: _346  and  _348
REMARK  144  A    between atoms: _348  and  _349
REMARK  145  A    between atoms: _348  and  _351
REMARK  146  A    between atoms: _351  and  _352
REMARK  147  A    between atoms: _355  and  _357
REMARK  148  A    between atoms: _357  and  _358
REMARK  149  A    between atoms: _360  and  _362
REMARK  150  A    between atoms: _362  and  _363
REMARK  151  A    between atoms: _365  and  _367
REMARK  152  A    between atoms: _367  and  _368
REMARK  153  A    between atoms: _367  and  _370
REMARK  154  A    between atoms: _370  and  _371
REMARK  155  A    between atoms: _374  and  _376
REMARK  156  A    between atoms: _376  and  _377
REMARK  157  A    between atoms: _379  and  _381
REMARK  158  A    between atoms: _381  and  _382
REMARK  159  A    between atoms: _384  and  _386
REMARK  160  A    between atoms: _386  and  _387
REMARK  161  A    between atoms: _386  and  _389
REMARK  162  A    between atoms: _389  and  _390
REMARK  163  A    between atoms: _393  and  _395
REMARK  164  A    between atoms: _395  and  _396
REMARK  165  A    between atoms: _395  and  _398
REMARK  166  A    between atoms: _401  and  _403
REMARK  167  A    between atoms: _403  and  _404
REMARK  168  A    between atoms: _403  and  _406
REMARK  169  A    between atoms: _406  and  _407
REMARK  170  A    between atoms: _410  and  _412
REMARK  171  A    between atoms: _412  and  _413
REMARK  172  A    between atoms: _412  and  _415
REMARK  173  A    between atoms: _415  and  _416
REMARK  174  A    between atoms: _420  and  _421
REMARK  175  A    between atoms: _426  and  _428
REMARK  176  A    between atoms: _428  and  _429
REMARK  177  A    between atoms: _428  and  _431
REMARK  178  A    between atoms: _434  and  _436
REMARK  179  A    between atoms: _436  and  _437
REMARK  180  A    between atoms: _436  and  _439
REMARK  181  A    between atoms: _439  and  _440
REMARK  182  A    between atoms: _445  and  _447
REMARK  183  A    between atoms: _447  and  _448
REMARK  184  A    between atoms: _447  and  _450
REMARK  185  A    between atoms: _450  and  _451
REMARK  186  A    between atoms: _454  and  _456
REMARK  187  A    between atoms: _456  and  _457
REMARK  188  A    between atoms: _456  and  _459
REMARK  189  A    between atoms: _459  and  _460
REMARK  190  A    between atoms: _463  and  _465
REMARK  191  A    between atoms: _465  and  _466
REMARK  192  A    between atoms: _468  and  _470
REMARK  193  A    between atoms: _470  and  _471
REMARK  194  A    between atoms: _470  and  _473
REMARK  195  A    between atoms: _473  and  _474
REMARK  196  A    between atoms: _474  and  _475
REMARK  197  A    between atoms: _475  and  _476
REMARK  198  A    between atoms: _485  and  _487
REMARK  199  A    between atoms: _487  and  _488
REMARK  200  A    between atoms: _487  and  _490
REMARK  201  A    between atoms: _490  and  _491
REMARK                            x       y       z     vdW  Elec       q    Type
REMARK                         _______ _______ _______ _____ _____    ______ ____
ROOT
ATOM      1  O   HOH     1       9.076  34.668  21.556  0.00  0.00    +0.000 OA
ENDROOT
TORSDOF 0
REMARK  Name = ../refined-set-2016/2qi7/2qi7_pocket.pdb
REMARK  201 active torsions:
REMARK  status: ('A' for Active; 'I' for Inactive)
REMARK    1  A    between atoms: _1  and  _3
REMARK    2  A    between atoms: _3  and  _4
REMARK    3  A    between atoms: _3  and  _6
REMARK    4  A    between atoms: _6  and  _7
REMARK    5  A    between atoms: _7  and  _8
REMARK    6  A    between atoms: _8  and  _9
REMARK    7  A    between atoms: _18  and  _20
REMARK    8  A    between atoms: _20  and  _21
REMARK    9  A    between atoms: _20  and  _23
REMARK   10  A    between atoms: _23  and  _24
REMARK   11  A    between atoms: _27  and  _29
REMARK   12  A    between atoms: _29  and  _30
REMARK   13  A    between atoms: _29  and  _32
REMARK   14  A    between atoms: _32  and  _33
REMARK   15  A    between atoms: _36  and  _38
REMARK   16  A    between atoms: _38  and  _39
REMARK   17  A    between atoms: _38  and  _41
REMARK   18  A    between atoms: _41  and  _42
REMARK   19  A    between atoms: _45  and  _47
REMARK   20  A    between atoms: _47  and  _48
REMARK   21  A    between atoms: _47  and  _50
REMARK   22  A    between atoms: _50  and  _51
REMARK   23  A    between atoms: _54  and  _56
REMARK   24  A    between atoms: _56  and  _57
REMARK   25  A    between atoms: _59  and  _61
REMARK   26  A    between atoms: _61  and  _62
REMARK   27  A    between atoms: _65  and  _67
REMARK   28  A    between atoms: _67  and  _68
REMARK   29  A    between atoms: _67  and  _70
REMARK   30  A    between atoms: _70  and  _71
REMARK   31  A    between atoms: _74  and  _76
REMARK   32  A    between atoms: _76  and  _77
REMARK   33  A    between atoms: _76  and  _79
REMARK   34  A    between atoms: _79  and  _80
REMARK   35  A    between atoms: _83  and  _85
REMARK   36  A    between atoms: _85  and  _86
REMARK   37  A    between atoms: _85  and  _88
REMARK   38  A    between atoms: _88  and  _89
REMARK   39  A    between atoms: _92  and  _94
REMARK   40  A    between atoms: _94  and  _95
REMARK   41  A    between atoms: _94  and  _97
REMARK   42  A    between atoms: _100  and  _102
REMARK   43  A    between atoms: _102  and  _103
REMARK   44  A    between atoms: _102  and  _105
REMARK   45  A    between atoms: _105  and  _106
REMARK   46  A    between atoms: _109  and  _111
REMARK   47  A    between atoms: _111  and  _112
REMARK   48  A    between atoms: _114  and  _116
REMARK   49  A    between atoms: _116  and  _117
REMARK   50  A    between atoms: _119  and  _121
REMARK   51  A    between atoms: _121  and  _122
REMARK   52  A    between atoms: _121  and  _124
REMARK   53  A    between atoms: _124  and  _125
REMARK   54  A    between atoms: _128  and  _130
REMARK   55  A    between atoms: _130  and  _131
REMARK   56  A    between atoms: _133  and  _135
REMARK   57  A    between atoms: _135  and  _136
REMARK   58  A    between atoms: _138  and  _140
REMARK   59  A    between atoms: _140  and  _141
REMARK   60  A    between atoms: _140  and  _143
REMARK   61  A    between atoms: _143  and  _144
REMARK   62  A    between atoms: _150  and  _152
REMARK   63  A    between atoms: _152  and  _153
REMARK   64  A    between atoms: _152  and  _155
REMARK   65  A    between atoms: _155  and  _156
REMARK   66  A    between atoms: _160  and  _161
REMARK   67  A    between atoms: _166  and  _168
REMARK   68  A    between atoms: _168  and  _169
REMARK   69  A    between atoms: _168  and  _171
REMARK   70  A    between atoms: _174  and  _176
REMARK   71  A    between atoms: _176  and  _177
REMARK   72  A    between atoms: _176  and  _179
REMARK   73  A    between atoms: _179  and  _180
REMARK   74  A    between atoms: _185  and  _187
REMARK   75  A    between atoms: _187  and  _188
REMARK   76  A    between atoms: _187  and  _190
REMARK   77  A    between atoms: _190  and  _191
REMARK   78  A    between atoms: _194  and  _196
REMARK   79  A    between atoms: _196  and  _197
REMARK   80  A    between atoms: _196  and  _199
REMARK   81  A    between atoms: _199  and  _200
REMARK   82  A    between atoms: _203  and  _205
REMARK   83  A    between atoms: _205  and  _206
REMARK   84  A    between atoms: _208  and  _210
REMARK   85  A    between atoms: _210  and  _211
REMARK   86  A    between atoms: _210  and  _213
REMARK   87  A    between atoms: _213  and  _214
REMARK   88  A    between atoms: _214  and  _215
REMARK   89  A    between atoms: _215  and  _216
REMARK   90  A    between atoms: _225  and  _227
REMARK   91  A    between atoms: _227  and  _228
REMARK   92  A    between atoms: _227  and  _230
REMARK   93  A    between atoms: _230  and  _231
REMARK   94  A    between atoms: _231  and  _232
REMARK   95  A    between atoms: _232  and  _233
REMARK   96  A    between atoms: _242  and  _244
REMARK   97  A    between atoms: _244  and  _245
REMARK   98  A    between atoms: _244  and  _247
REMARK   99  A    between atoms: _247  and  _248
REMARK  100  A    between atoms: _251  and  _253
REMARK  101  A    between atoms: _253  and  _254
REMARK  102  A    between atoms: _253  and  _256
REMARK  103  A    between atoms: _256  and  _257
REMARK  104  A    between atoms: _260  and  _262
REMARK  105  A    between atoms: _262  and  _263
REMARK  106  A    between atoms: _262  and  _265
REMARK  107  A    between atoms: _265  and  _266
REMARK  108  A    between atoms: _269  and  _271
REMARK  109  A    between atoms: _271  and  _272
REMARK  110  A    between atoms: _271  and  _274
REMARK  111  A    between atoms: _274  and  _275
REMARK  112  A    between atoms: _278  and  _280
REMARK  113  A    between atoms: _280  and  _281
REMARK  114  A    between atoms: _283  and  _285
REMARK  115  A    between atoms: _285  and  _286
REMARK  116  A    between atoms: _289  and  _291
REMARK  117  A    between atoms: _291  and  _292
REMARK  118  A    between atoms: _291  and  _294
REMARK  119  A    between atoms: _294  and  _295
REMARK  120  A    between atoms: _298  and  _300
REMARK  121  A    between atoms: _300  and  _301
REMARK  122  A    between atoms: _300  and  _303
REMARK  123  A    between atoms: _303  and  _304
REMARK  124  A    between atoms: _307  and  _309
REMARK  125  A    between atoms: _309  and  _310
REMARK  126  A    between atoms: _309  and  _312
REMARK  127  A    between atoms: _312  and  _313
REMARK  128  A    between atoms: _316  and  _318
REMARK  129  A    between atoms: _318  and  _319
REMARK  130  A    between atoms: _318  and  _321
REMARK  131  A    between atoms: _324  and  _326
REMARK  132  A    between atoms: _326  and  _327
REMARK  133  A    between atoms: _326  and  _329
REMARK  134  A    between atoms: _329  and  _330
REMARK  135  A    between atoms: _330  and  _331
REMARK  136  A    between atoms: _331  and  _332
REMARK  137  A    between atoms: _332  and  _333
REMARK  138  A    between atoms: _337  and  _339
REMARK  139  A    between atoms: _339  and  _340
REMARK  140  A    between atoms: _339  and  _342
REMARK  141  A    between atoms: _342  and  _343
REMARK  142  A    between atoms: _343  and  _344
REMARK  143  A    between atoms: _346  and  _348
REMARK  144  A    between atoms: _348  and  _349
REMARK  145  A    between atoms: _348  and  _351
REMARK  146  A    between atoms: _351  and  _352
REMARK  147  A    between atoms: _355  and  _357
REMARK  148  A    between atoms: _357  and  _358
REMARK  149  A    between atoms: _360  and  _362
REMARK  150  A    between atoms: _362  and  _363
REMARK  151  A    between atoms: _365  and  _367
REMARK  152  A    between atoms: _367  and  _368
REMARK  153  A    between atoms: _367  and  _370
REMARK  154  A    between atoms: _370  and  _371
REMARK  155  A    between atoms: _374  and  _376
REMARK  156  A    between atoms: _376  and  _377
REMARK  157  A    between atoms: _379  and  _381
REMARK  158  A    between atoms: _381  and  _382
REMARK  159  A    between atoms: _384  and  _386
REMARK  160  A    between atoms: _386  and  _387
REMARK  161  A    between atoms: _386  and  _389
REMARK  162  A    between atoms: _389  and  _390
REMARK  163  A    between atoms: _393  and  _395
REMARK  164  A    between atoms: _395  and  _396
REMARK  165  A    between atoms: _395  and  _398
REMARK  166  A    between atoms: _401  and  _403
REMARK  167  A    between atoms: _403  and  _404
REMARK  168  A    between atoms: _403  and  _406
REMARK  169  A    between atoms: _406  and  _407
REMARK  170  A    between atoms: _410  and  _412
REMARK  171  A    between atoms: _412  and  _413
REMARK  172  A    between atoms: _412  and  _415
REMARK  173  A    between atoms: _415  and  _416
REMARK  174  A    between atoms: _420  and  _421
REMARK  175  A    between atoms: _426  and  _428
REMARK  176  A    between atoms: _428  and  _429
REMARK  177  A    between atoms: _428  and  _431
REMARK  178  A    between atoms: _434  and  _436
REMARK  179  A    between atoms: _436  and  _437
REMARK  180  A    between atoms: _436  and  _439
REMARK  181  A    between atoms: _439  and  _440
REMARK  182  A    between atoms: _445  and  _447
REMARK  183  A    between atoms: _447  and  _448
REMARK  184  A    between atoms: _447  and  _450
REMARK  185  A    between atoms: _450  and  _451
REMARK  186  A    between atoms: _454  and  _456
REMARK  187  A    between atoms: _456  and  _457
REMARK  188  A    between atoms: _456  and  _459
REMARK  189  A    between atoms: _459  and  _460
REMARK  190  A    between atoms: _463  and  _465
REMARK  191  A    between atoms: _465  and  _466
REMARK  192  A    between atoms: _468  and  _470
REMARK  193  A    between atoms: _470  and  _471
REMARK  194  A    between atoms: _470  and  _473
REMARK  195  A    between atoms: _473  and  _474
REMARK  196  A    between atoms: _474  and  _475
REMARK  197  A    between atoms: _475  and  _476
REMARK  198  A    between atoms: _485  and  _487
REMARK  199  A    between atoms: _487  and  _488
REMARK  200  A    between atoms: _487  and  _490
REMARK  201  A    between atoms: _490  and  _491
REMARK                            x       y       z     vdW  Elec       q    Type
REMARK                         _______ _______ _______ _____ _____    ______ ____
ROOT
ATOM      1  O   HOH     1      20.001  32.174  11.845  0.00  0.00    +0.000 OA
ENDROOT
TORSDOF 0
REMARK  Name = ../refined-set-2016/2qi7/2qi7_pocket.pdb
REMARK  201 active torsions:
REMARK  status: ('A' for Active; 'I' for Inactive)
REMARK    1  A    between atoms: _1  and  _3
REMARK    2  A    between atoms: _3  and  _4
REMARK    3  A    between atoms: _3  and  _6
REMARK    4  A    between atoms: _6  and  _7
REMARK    5  A    between atoms: _7  and  _8
REMARK    6  A    between atoms: _8  and  _9
REMARK    7  A    between atoms: _18  and  _20
REMARK    8  A    between atoms: _20  and  _21
REMARK    9  A    between atoms: _20  and  _23
REMARK   10  A    between atoms: _23  and  _24
REMARK   11  A    between atoms: _27  and  _29
REMARK   12  A    between atoms: _29  and  _30
REMARK   13  A    between atoms: _29  and  _32
REMARK   14  A    between atoms: _32  and  _33
REMARK   15  A    between atoms: _36  and  _38
REMARK   16  A    between atoms: _38  and  _39
REMARK   17  A    between atoms: _38  and  _41
REMARK   18  A    between atoms: _41  and  _42
REMARK   19  A    between atoms: _45  and  _47
REMARK   20  A    between atoms: _47  and  _48
REMARK   21  A    between atoms: _47  and  _50
REMARK   22  A    between atoms: _50  and  _51
REMARK   23  A    between atoms: _54  and  _56
REMARK   24  A    between atoms: _56  and  _57
REMARK   25  A    between atoms: _59  and  _61
REMARK   26  A    between atoms: _61  and  _62
REMARK   27  A    between atoms: _65  and  _67
REMARK   28  A    between atoms: _67  and  _68
REMARK   29  A    between atoms: _67  and  _70
REMARK   30  A    between atoms: _70  and  _71
REMARK   31  A    between atoms: _74  and  _76
REMARK   32  A    between atoms: _76  and  _77
REMARK   33  A    between atoms: _76  and  _79
REMARK   34  A    between atoms: _79  and  _80
REMARK   35  A    between atoms: _83  and  _85
REMARK   36  A    between atoms: _85  and  _86
REMARK   37  A    between atoms: _85  and  _88
REMARK   38  A    between atoms: _88  and  _89
REMARK   39  A    between atoms: _92  and  _94
REMARK   40  A    between atoms: _94  and  _95
REMARK   41  A    between atoms: _94  and  _97
REMARK   42  A    between atoms: _100  and  _102
REMARK   43  A    between atoms: _102  and  _103
REMARK   44  A    between atoms: _102  and  _105
REMARK   45  A    between atoms: _105  and  _106
REMARK   46  A    between atoms: _109  and  _111
REMARK   47  A    between atoms: _111  and  _112
REMARK   48  A    between atoms: _114  and  _116
REMARK   49  A    between atoms: _116  and  _117
REMARK   50  A    between atoms: _119  and  _121
REMARK   51  A    between atoms: _121  and  _122
REMARK   52  A    between atoms: _121  and  _124
REMARK   53  A    between atoms: _124  and  _125
REMARK   54  A    between atoms: _128  and  _130
REMARK   55  A    between atoms: _130  and  _131
REMARK   56  A    between atoms: _133  and  _135
REMARK   57  A    between atoms: _135  and  _136
REMARK   58  A    between atoms: _138  and  _140
REMARK   59  A    between atoms: _140  and  _141
REMARK   60  A    between atoms: _140  and  _143
REMARK   61  A    between atoms: _143  and  _144
REMARK   62  A    between atoms: _150  and  _152
REMARK   63  A    between atoms: _152  and  _153
REMARK   64  A    between atoms: _152  and  _155
REMARK   65  A    between atoms: _155  and  _156
REMARK   66  A    between atoms: _160  and  _161
REMARK   67  A    between atoms: _166  and  _168
REMARK   68  A    between atoms: _168  and  _169
REMARK   69  A    between atoms: _168  and  _171
REMARK   70  A    between atoms: _174  and  _176
REMARK   71  A    between atoms: _176  and  _177
REMARK   72  A    between atoms: _176  and  _179
REMARK   73  A    between atoms: _179  and  _180
REMARK   74  A    between atoms: _185  and  _187
REMARK   75  A    between atoms: _187  and  _188
REMARK   76  A    between atoms: _187  and  _190
REMARK   77  A    between atoms: _190  and  _191
REMARK   78  A    between atoms: _194  and  _196
REMARK   79  A    between atoms: _196  and  _197
REMARK   80  A    between atoms: _196  and  _199
REMARK   81  A    between atoms: _199  and  _200
REMARK   82  A    between atoms: _203  and  _205
REMARK   83  A    between atoms: _205  and  _206
REMARK   84  A    between atoms: _208  and  _210
REMARK   85  A    between atoms: _210  and  _211
REMARK   86  A    between atoms: _210  and  _213
REMARK   87  A    between atoms: _213  and  _214
REMARK   88  A    between atoms: _214  and  _215
REMARK   89  A    between atoms: _215  and  _216
REMARK   90  A    between atoms: _225  and  _227
REMARK   91  A    between atoms: _227  and  _228
REMARK   92  A    between atoms: _227  and  _230
REMARK   93  A    between atoms: _230  and  _231
REMARK   94  A    between atoms: _231  and  _232
REMARK   95  A    between atoms: _232  and  _233
REMARK   96  A    between atoms: _242  and  _244
REMARK   97  A    between atoms: _244  and  _245
REMARK   98  A    between atoms: _244  and  _247
REMARK   99  A    between atoms: _247  and  _248
REMARK  100  A    between atoms: _251  and  _253
REMARK  101  A    between atoms: _253  and  _254
REMARK  102  A    between atoms: _253  and  _256
REMARK  103  A    between atoms: _256  and  _257
REMARK  104  A    between atoms: _260  and  _262
REMARK  105  A    between atoms: _262  and  _263
REMARK  106  A    between atoms: _262  and  _265
REMARK  107  A    between atoms: _265  and  _266
REMARK  108  A    between atoms: _269  and  _271
REMARK  109  A    between atoms: _271  and  _272
REMARK  110  A    between atoms: _271  and  _274
REMARK  111  A    between atoms: _274  and  _275
REMARK  112  A    between atoms: _278  and  _280
REMARK  113  A    between atoms: _280  and  _281
REMARK  114  A    between atoms: _283  and  _285
REMARK  115  A    between atoms: _285  and  _286
REMARK  116  A    between atoms: _289  and  _291
REMARK  117  A    between atoms: _291  and  _292
REMARK  118  A    between atoms: _291  and  _294
REMARK  119  A    between atoms: _294  and  _295
REMARK  120  A    between atoms: _298  and  _300
REMARK  121  A    between atoms: _300  and  _301
REMARK  122  A    between atoms: _300  and  _303
REMARK  123  A    between atoms: _303  and  _304
REMARK  124  A    between atoms: _307  and  _309
REMARK  125  A    between atoms: _309  and  _310
REMARK  126  A    between atoms: _309  and  _312
REMARK  127  A    between atoms: _312  and  _313
REMARK  128  A    between atoms: _316  and  _318
REMARK  129  A    between atoms: _318  and  _319
REMARK  130  A    between atoms: _318  and  _321
REMARK  131  A    between atoms: _324  and  _326
REMARK  132  A    between atoms: _326  and  _327
REMARK  133  A    between atoms: _326  and  _329
REMARK  134  A    between atoms: _329  and  _330
REMARK  135  A    between atoms: _330  and  _331
REMARK  136  A    between atoms: _331  and  _332
REMARK  137  A    between atoms: _332  and  _333
REMARK  138  A    between atoms: _337  and  _339
REMARK  139  A    between atoms: _339  and  _340
REMARK  140  A    between atoms: _339  and  _342
REMARK  141  A    between atoms: _342  and  _343
REMARK  142  A    between atoms: _343  and  _344
REMARK  143  A    between atoms: _346  and  _348
REMARK  144  A    between atoms: _348  and  _349
REMARK  145  A    between atoms: _348  and  _351
REMARK  146  A    between atoms: _351  and  _352
REMARK  147  A    between atoms: _355  and  _357
REMARK  148  A    between atoms: _357  and  _358
REMARK  149  A    between atoms: _360  and  _362
REMARK  150  A    between atoms: _362  and  _363
REMARK  151  A    between atoms: _365  and  _367
REMARK  152  A    between atoms: _367  and  _368
REMARK  153  A    between atoms: _367  and  _370
REMARK  154  A    between atoms: _370  and  _371
REMARK  155  A    between atoms: _374  and  _376
REMARK  156  A    between atoms: _376  and  _377
REMARK  157  A    between atoms: _379  and  _381
REMARK  158  A    between atoms: _381  and  _382
REMARK  159  A    between atoms: _384  and  _386
REMARK  160  A    between atoms: _386  and  _387
REMARK  161  A    between atoms: _386  and  _389
REMARK  162  A    between atoms: _389  and  _390
REMARK  163  A    between atoms: _393  and  _395
REMARK  164  A    between atoms: _395  and  _396
REMARK  165  A    between atoms: _395  and  _398
REMARK  166  A    between atoms: _401  and  _403
REMARK  167  A    between atoms: _403  and  _404
REMARK  168  A    between atoms: _403  and  _406
REMARK  169  A    between atoms: _406  and  _407
REMARK  170  A    between atoms: _410  and  _412
REMARK  171  A    between atoms: _412  and  _413
REMARK  172  A    between atoms: _412  and  _415
REMARK  173  A    between atoms: _415  and  _416
REMARK  174  A    between atoms: _420  and  _421
REMARK  175  A    between atoms: _426  and  _428
REMARK  176  A    between atoms: _428  and  _429
REMARK  177  A    between atoms: _428  and  _431
REMARK  178  A    between atoms: _434  and  _436
REMARK  179  A    between atoms: _436  and  _437
REMARK  180  A    between atoms: _436  and  _439
REMARK  181  A    between atoms: _439  and  _440
REMARK  182  A    between atoms: _445  and  _447
REMARK  183  A    between atoms: _447  and  _448
REMARK  184  A    between atoms: _447  and  _450
REMARK  185  A    between atoms: _450  and  _451
REMARK  186  A    between atoms: _454  and  _456
REMARK  187  A    between atoms: _456  and  _457
REMARK  188  A    between atoms: _456  and  _459
REMARK  189  A    between atoms: _459  and  _460
REMARK  190  A    between atoms: _463  and  _465
REMARK  191  A    between atoms: _465  and  _466
REMARK  192  A    between atoms: _468  and  _470
REMARK  193  A    between atoms: _470  and  _471
REMARK  194  A    between atoms: _470  and  _473
REMARK  195  A    between atoms: _473  and  _474
REMARK  196  A    between atoms: _474  and  _475
REMARK  197  A    between atoms: _475  and  _476
REMARK  198  A    between atoms: _485  and  _487
REMARK  199  A    between atoms: _487  and  _488
REMARK  200  A    between atoms: _487  and  _490
REMARK  201  A    between atoms: _490  and  _491
REMARK                            x       y       z     vdW  Elec       q    Type
REMARK                         _______ _______ _______ _____ _____    ______ ____
ROOT
ATOM      1  O   HOH     1      20.630  34.228  21.802  0.00  0.00    +0.000 OA
ENDROOT
TORSDOF 0
REMARK  Name = ../refined-set-2016/2qi7/2qi7_pocket.pdb
REMARK  201 active torsions:
REMARK  status: ('A' for Active; 'I' for Inactive)
REMARK    1  A    between atoms: _1  and  _3
REMARK    2  A    between atoms: _3  and  _4
REMARK    3  A    between atoms: _3  and  _6
REMARK    4  A    between atoms: _6  and  _7
REMARK    5  A    between atoms: _7  and  _8
REMARK    6  A    between atoms: _8  and  _9
REMARK    7  A    between atoms: _18  and  _20
REMARK    8  A    between atoms: _20  and  _21
REMARK    9  A    between atoms: _20  and  _23
REMARK   10  A    between atoms: _23  and  _24
REMARK   11  A    between atoms: _27  and  _29
REMARK   12  A    between atoms: _29  and  _30
REMARK   13  A    between atoms: _29  and  _32
REMARK   14  A    between atoms: _32  and  _33
REMARK   15  A    between atoms: _36  and  _38
REMARK   16  A    between atoms: _38  and  _39
REMARK   17  A    between atoms: _38  and  _41
REMARK   18  A    between atoms: _41  and  _42
REMARK   19  A    between atoms: _45  and  _47
REMARK   20  A    between atoms: _47  and  _48
REMARK   21  A    between atoms: _47  and  _50
REMARK   22  A    between atoms: _50  and  _51
REMARK   23  A    between atoms: _54  and  _56
REMARK   24  A    between atoms: _56  and  _57
REMARK   25  A    between atoms: _59  and  _61
REMARK   26  A    between atoms: _61  and  _62
REMARK   27  A    between atoms: _65  and  _67
REMARK   28  A    between atoms: _67  and  _68
REMARK   29  A    between atoms: _67  and  _70
REMARK   30  A    between atoms: _70  and  _71
REMARK   31  A    between atoms: _74  and  _76
REMARK   32  A    between atoms: _76  and  _77
REMARK   33  A    between atoms: _76  and  _79
REMARK   34  A    between atoms: _79  and  _80
REMARK   35  A    between atoms: _83  and  _85
REMARK   36  A    between atoms: _85  and  _86
REMARK   37  A    between atoms: _85  and  _88
REMARK   38  A    between atoms: _88  and  _89
REMARK   39  A    between atoms: _92  and  _94
REMARK   40  A    between atoms: _94  and  _95
REMARK   41  A    between atoms: _94  and  _97
REMARK   42  A    between atoms: _100  and  _102
REMARK   43  A    between atoms: _102  and  _103
REMARK   44  A    between atoms: _102  and  _105
REMARK   45  A    between atoms: _105  and  _106
REMARK   46  A    between atoms: _109  and  _111
REMARK   47  A    between atoms: _111  and  _112
REMARK   48  A    between atoms: _114  and  _116
REMARK   49  A    between atoms: _116  and  _117
REMARK   50  A    between atoms: _119  and  _121
REMARK   51  A    between atoms: _121  and  _122
REMARK   52  A    between atoms: _121  and  _124
REMARK   53  A    between atoms: _124  and  _125
REMARK   54  A    between atoms: _128  and  _130
REMARK   55  A    between atoms: _130  and  _131
REMARK   56  A    between atoms: _133  and  _135
REMARK   57  A    between atoms: _135  and  _136
REMARK   58  A    between atoms: _138  and  _140
REMARK   59  A    between atoms: _140  and  _141
REMARK   60  A    between atoms: _140  and  _143
REMARK   61  A    between atoms: _143  and  _144
REMARK   62  A    between atoms: _150  and  _152
REMARK   63  A    between atoms: _152  and  _153
REMARK   64  A    between atoms: _152  and  _155
REMARK   65  A    between atoms: _155  and  _156
REMARK   66  A    between atoms: _160  and  _161
REMARK   67  A    between atoms: _166  and  _168
REMARK   68  A    between atoms: _168  and  _169
REMARK   69  A    between atoms: _168  and  _171
REMARK   70  A    between atoms: _174  and  _176
REMARK   71  A    between atoms: _176  and  _177
REMARK   72  A    between atoms: _176  and  _179
REMARK   73  A    between atoms: _179  and  _180
REMARK   74  A    between atoms: _185  and  _187
REMARK   75  A    between atoms: _187  and  _188
REMARK   76  A    between atoms: _187  and  _190
REMARK   77  A    between atoms: _190  and  _191
REMARK   78  A    between atoms: _194  and  _196
REMARK   79  A    between atoms: _196  and  _197
REMARK   80  A    between atoms: _196  and  _199
REMARK   81  A    between atoms: _199  and  _200
REMARK   82  A    between atoms: _203  and  _205
REMARK   83  A    between atoms: _205  and  _206
REMARK   84  A    between atoms: _208  and  _210
REMARK   85  A    between atoms: _210  and  _211
REMARK   86  A    between atoms: _210  and  _213
REMARK   87  A    between atoms: _213  and  _214
REMARK   88  A    between atoms: _214  and  _215
REMARK   89  A    between atoms: _215  and  _216
REMARK   90  A    between atoms: _225  and  _227
REMARK   91  A    between atoms: _227  and  _228
REMARK   92  A    between atoms: _227  and  _230
REMARK   93  A    between atoms: _230  and  _231
REMARK   94  A    between atoms: _231  and  _232
REMARK   95  A    between atoms: _232  and  _233
REMARK   96  A    between atoms: _242  and  _244
REMARK   97  A    between atoms: _244  and  _245
REMARK   98  A    between atoms: _244  and  _247
REMARK   99  A    between atoms: _247  and  _248
REMARK  100  A    between atoms: _251  and  _253
REMARK  101  A    between atoms: _253  and  _254
REMARK  102  A    between atoms: _253  and  _256
REMARK  103  A    between atoms: _256  and  _257
REMARK  104  A    between atoms: _260  and  _262
REMARK  105  A    between atoms: _262  and  _263
REMARK  106  A    between atoms: _262  and  _265
REMARK  107  A    between atoms: _265  and  _266
REMARK  108  A    between atoms: _269  and  _271
REMARK  109  A    between atoms: _271  and  _272
REMARK  110  A    between atoms: _271  and  _274
REMARK  111  A    between atoms: _274  and  _275
REMARK  112  A    between atoms: _278  and  _280
REMARK  113  A    between atoms: _280  and  _281
REMARK  114  A    between atoms: _283  and  _285
REMARK  115  A    between atoms: _285  and  _286
REMARK  116  A    between atoms: _289  and  _291
REMARK  117  A    between atoms: _291  and  _292
REMARK  118  A    between atoms: _291  and  _294
REMARK  119  A    between atoms: _294  and  _295
REMARK  120  A    between atoms: _298  and  _300
REMARK  121  A    between atoms: _300  and  _301
REMARK  122  A    between atoms: _300  and  _303
REMARK  123  A    between atoms: _303  and  _304
REMARK  124  A    between atoms: _307  and  _309
REMARK  125  A    between atoms: _309  and  _310
REMARK  126  A    between atoms: _309  and  _312
REMARK  127  A    between atoms: _312  and  _313
REMARK  128  A    between atoms: _316  and  _318
REMARK  129  A    between atoms: _318  and  _319
REMARK  130  A    between atoms: _318  and  _321
REMARK  131  A    between atoms: _324  and  _326
REMARK  132  A    between atoms: _326  and  _327
REMARK  133  A    between atoms: _326  and  _329
REMARK  134  A    between atoms: _329  and  _330
REMARK  135  A    between atoms: _330  and  _331
REMARK  136  A    between atoms: _331  and  _332
REMARK  137  A    between atoms: _332  and  _333
REMARK  138  A    between atoms: _337  and  _339
REMARK  139  A    between atoms: _339  and  _340
REMARK  140  A    between atoms: _339  and  _342
REMARK  141  A    between atoms: _342  and  _343
REMARK  142  A    between atoms: _343  and  _344
REMARK  143  A    between atoms: _346  and  _348
REMARK  144  A    between atoms: _348  and  _349
REMARK  145  A    between atoms: _348  and  _351
REMARK  146  A    between atoms: _351  and  _352
REMARK  147  A    between atoms: _355  and  _357
REMARK  148  A    between atoms: _357  and  _358
REMARK  149  A    between atoms: _360  and  _362
REMARK  150  A    between atoms: _362  and  _363
REMARK  151  A    between atoms: _365  and  _367
REMARK  152  A    between atoms: _367  and  _368
REMARK  153  A    between atoms: _367  and  _370
REMARK  154  A    between atoms: _370  and  _371
REMARK  155  A    between atoms: _374  and  _376
REMARK  156  A    between atoms: _376  and  _377
REMARK  157  A    between atoms: _379  and  _381
REMARK  158  A    between atoms: _381  and  _382
REMARK  159  A    between atoms: _384  and  _386
REMARK  160  A    between atoms: _386  and  _387
REMARK  161  A    between atoms: _386  and  _389
REMARK  162  A    between atoms: _389  and  _390
REMARK  163  A    between atoms: _393  and  _395
REMARK  164  A    between atoms: _395  and  _396
REMARK  165  A    between atoms: _395  and  _398
REMARK  166  A    between atoms: _401  and  _403
REMARK  167  A    between atoms: _403  and  _404
REMARK  168  A    between atoms: _403  and  _406
REMARK  169  A    between atoms: _406  and  _407
REMARK  170  A    between atoms: _410  and  _412
REMARK  171  A    between atoms: _412  and  _413
REMARK  172  A    between atoms: _412  and  _415
REMARK  173  A    between atoms: _415  and  _416
REMARK  174  A    between atoms: _420  and  _421
REMARK  175  A    between atoms: _426  and  _428
REMARK  176  A    between atoms: _428  and  _429
REMARK  177  A    between atoms: _428  and  _431
REMARK  178  A    between atoms: _434  and  _436
REMARK  179  A    between atoms: _436  and  _437
REMARK  180  A    between atoms: _436  and  _439
REMARK  181  A    between atoms: _439  and  _440
REMARK  182  A    between atoms: _445  and  _447
REMARK  183  A    between atoms: _447  and  _448
REMARK  184  A    between atoms: _447  and  _450
REMARK  185  A    between atoms: _450  and  _451
REMARK  186  A    between atoms: _454  and  _456
REMARK  187  A    between atoms: _456  and  _457
REMARK  188  A    between atoms: _456  and  _459
REMARK  189  A    between atoms: _459  and  _460
REMARK  190  A    between atoms: _463  and  _465
REMARK  191  A    between atoms: _465  and  _466
REMARK  192  A    between atoms: _468  and  _470
REMARK  193  A    between atoms: _470  and  _471
REMARK  194  A    between atoms: _470  and  _473
REMARK  195  A    between atoms: _473  and  _474
REMARK  196  A    between atoms: _474  and  _475
REMARK  197  A    between atoms: _475  and  _476
REMARK  198  A    between atoms: _485  and  _487
REMARK  199  A    between atoms: _487  and  _488
REMARK  200  A    between atoms: _487  and  _490
REMARK  201  A    between atoms: _490  and  _491
REMARK                            x       y       z     vdW  Elec       q    Type
REMARK                         _______ _______ _______ _____ _____    ______ ____
ROOT
ATOM      1  O   HOH     1      17.312  22.861  11.210  0.00  0.00    +0.000 OA
ENDROOT
TORSDOF 0
REMARK  Name = ../refined-set-2016/2qi7/2qi7_pocket.pdb
REMARK  201 active torsions:
REMARK  status: ('A' for Active; 'I' for Inactive)
REMARK    1  A    between atoms: _1  and  _3
REMARK    2  A    between atoms: _3  and  _4
REMARK    3  A    between atoms: _3  and  _6
REMARK    4  A    between atoms: _6  and  _7
REMARK    5  A    between atoms: _7  and  _8
REMARK    6  A    between atoms: _8  and  _9
REMARK    7  A    between atoms: _18  and  _20
REMARK    8  A    between atoms: _20  and  _21
REMARK    9  A    between atoms: _20  and  _23
REMARK   10  A    between atoms: _23  and  _24
REMARK   11  A    between atoms: _27  and  _29
REMARK   12  A    between atoms: _29  and  _30
REMARK   13  A    between atoms: _29  and  _32
REMARK   14  A    between atoms: _32  and  _33
REMARK   15  A    between atoms: _36  and  _38
REMARK   16  A    between atoms: _38  and  _39
REMARK   17  A    between atoms: _38  and  _41
REMARK   18  A    between atoms: _41  and  _42
REMARK   19  A    between atoms: _45  and  _47
REMARK   20  A    between atoms: _47  and  _48
REMARK   21  A    between atoms: _47  and  _50
REMARK   22  A    between atoms: _50  and  _51
REMARK   23  A    between atoms: _54  and  _56
REMARK   24  A    between atoms: _56  and  _57
REMARK   25  A    between atoms: _59  and  _61
REMARK   26  A    between atoms: _61  and  _62
REMARK   27  A    between atoms: _65  and  _67
REMARK   28  A    between atoms: _67  and  _68
REMARK   29  A    between atoms: _67  and  _70
REMARK   30  A    between atoms: _70  and  _71
REMARK   31  A    between atoms: _74  and  _76
REMARK   32  A    between atoms: _76  and  _77
REMARK   33  A    between atoms: _76  and  _79
REMARK   34  A    between atoms: _79  and  _80
REMARK   35  A    between atoms: _83  and  _85
REMARK   36  A    between atoms: _85  and  _86
REMARK   37  A    between atoms: _85  and  _88
REMARK   38  A    between atoms: _88  and  _89
REMARK   39  A    between atoms: _92  and  _94
REMARK   40  A    between atoms: _94  and  _95
REMARK   41  A    between atoms: _94  and  _97
REMARK   42  A    between atoms: _100  and  _102
REMARK   43  A    between atoms: _102  and  _103
REMARK   44  A    between atoms: _102  and  _105
REMARK   45  A    between atoms: _105  and  _106
REMARK   46  A    between atoms: _109  and  _111
REMARK   47  A    between atoms: _111  and  _112
REMARK   48  A    between atoms: _114  and  _116
REMARK   49  A    between atoms: _116  and  _117
REMARK   50  A    between atoms: _119  and  _121
REMARK   51  A    between atoms: _121  and  _122
REMARK   52  A    between atoms: _121  and  _124
REMARK   53  A    between atoms: _124  and  _125
REMARK   54  A    between atoms: _128  and  _130
REMARK   55  A    between atoms: _130  and  _131
REMARK   56  A    between atoms: _133  and  _135
REMARK   57  A    between atoms: _135  and  _136
REMARK   58  A    between atoms: _138  and  _140
REMARK   59  A    between atoms: _140  and  _141
REMARK   60  A    between atoms: _140  and  _143
REMARK   61  A    between atoms: _143  and  _144
REMARK   62  A    between atoms: _150  and  _152
REMARK   63  A    between atoms: _152  and  _153
REMARK   64  A    between atoms: _152  and  _155
REMARK   65  A    between atoms: _155  and  _156
REMARK   66  A    between atoms: _160  and  _161
REMARK   67  A    between atoms: _166  and  _168
REMARK   68  A    between atoms: _168  and  _169
REMARK   69  A    between atoms: _168  and  _171
REMARK   70  A    between atoms: _174  and  _176
REMARK   71  A    between atoms: _176  and  _177
REMARK   72  A    between atoms: _176  and  _179
REMARK   73  A    between atoms: _179  and  _180
REMARK   74  A    between atoms: _185  and  _187
REMARK   75  A    between atoms: _187  and  _188
REMARK   76  A    between atoms: _187  and  _190
REMARK   77  A    between atoms: _190  and  _191
REMARK   78  A    between atoms: _194  and  _196
REMARK   79  A    between atoms: _196  and  _197
REMARK   80  A    between atoms: _196  and  _199
REMARK   81  A    between atoms: _199  and  _200
REMARK   82  A    between atoms: _203  and  _205
REMARK   83  A    between atoms: _205  and  _206
REMARK   84  A    between atoms: _208  and  _210
REMARK   85  A    between atoms: _210  and  _211
REMARK   86  A    between atoms: _210  and  _213
REMARK   87  A    between atoms: _213  and  _214
REMARK   88  A    between atoms: _214  and  _215
REMARK   89  A    between atoms: _215  and  _216
REMARK   90  A    between atoms: _225  and  _227
REMARK   91  A    between atoms: _227  and  _228
REMARK   92  A    between atoms: _227  and  _230
REMARK   93  A    between atoms: _230  and  _231
REMARK   94  A    between atoms: _231  and  _232
REMARK   95  A    between atoms: _232  and  _233
REMARK   96  A    between atoms: _242  and  _244
REMARK   97  A    between atoms: _244  and  _245
REMARK   98  A    between atoms: _244  and  _247
REMARK   99  A    between atoms: _247  and  _248
REMARK  100  A    between atoms: _251  and  _253
REMARK  101  A    between atoms: _253  and  _254
REMARK  102  A    between atoms: _253  and  _256
REMARK  103  A    between atoms: _256  and  _257
REMARK  104  A    between atoms: _260  and  _262
REMARK  105  A    between atoms: _262  and  _263
REMARK  106  A    between atoms: _262  and  _265
REMARK  107  A    between atoms: _265  and  _266
REMARK  108  A    between atoms: _269  and  _271
REMARK  109  A    between atoms: _271  and  _272
REMARK  110  A    between atoms: _271  and  _274
REMARK  111  A    between atoms: _274  and  _275
REMARK  112  A    between atoms: _278  and  _280
REMARK  113  A    between atoms: _280  and  _281
REMARK  114  A    between atoms: _283  and  _285
REMARK  115  A    between atoms: _285  and  _286
REMARK  116  A    between atoms: _289  and  _291
REMARK  117  A    between atoms: _291  and  _292
REMARK  118  A    between atoms: _291  and  _294
REMARK  119  A    between atoms: _294  and  _295
REMARK  120  A    between atoms: _298  and  _300
REMARK  121  A    between atoms: _300  and  _301
REMARK  122  A    between atoms: _300  and  _303
REMARK  123  A    between atoms: _303  and  _304
REMARK  124  A    between atoms: _307  and  _309
REMARK  125  A    between atoms: _309  and  _310
REMARK  126  A    between atoms: _309  and  _312
REMARK  127  A    between atoms: _312  and  _313
REMARK  128  A    between atoms: _316  and  _318
REMARK  129  A    between atoms: _318  and  _319
REMARK  130  A    between atoms: _318  and  _321
REMARK  131  A    between atoms: _324  and  _326
REMARK  132  A    between atoms: _326  and  _327
REMARK  133  A    between atoms: _326  and  _329
REMARK  134  A    between atoms: _329  and  _330
REMARK  135  A    between atoms: _330  and  _331
REMARK  136  A    between atoms: _331  and  _332
REMARK  137  A    between atoms: _332  and  _333
REMARK  138  A    between atoms: _337  and  _339
REMARK  139  A    between atoms: _339  and  _340
REMARK  140  A    between atoms: _339  and  _342
REMARK  141  A    between atoms: _342  and  _343
REMARK  142  A    between atoms: _343  and  _344
REMARK  143  A    between atoms: _346  and  _348
REMARK  144  A    between atoms: _348  and  _349
REMARK  145  A    between atoms: _348  and  _351
REMARK  146  A    between atoms: _351  and  _352
REMARK  147  A    between atoms: _355  and  _357
REMARK  148  A    between atoms: _357  and  _358
REMARK  149  A    between atoms: _360  and  _362
REMARK  150  A    between atoms: _362  and  _363
REMARK  151  A    between atoms: _365  and  _367
REMARK  152  A    between atoms: _367  and  _368
REMARK  153  A    between atoms: _367  and  _370
REMARK  154  A    between atoms: _370  and  _371
REMARK  155  A    between atoms: _374  and  _376
REMARK  156  A    between atoms: _376  and  _377
REMARK  157  A    between atoms: _379  and  _381
REMARK  158  A    between atoms: _381  and  _382
REMARK  159  A    between atoms: _384  and  _386
REMARK  160  A    between atoms: _386  and  _387
REMARK  161  A    between atoms: _386  and  _389
REMARK  162  A    between atoms: _389  and  _390
REMARK  163  A    between atoms: _393  and  _395
REMARK  164  A    between atoms: _395  and  _396
REMARK  165  A    between atoms: _395  and  _398
REMARK  166  A    between atoms: _401  and  _403
REMARK  167  A    between atoms: _403  and  _404
REMARK  168  A    between atoms: _403  and  _406
REMARK  169  A    between atoms: _406  and  _407
REMARK  170  A    between atoms: _410  and  _412
REMARK  171  A    between atoms: _412  and  _413
REMARK  172  A    between atoms: _412  and  _415
REMARK  173  A    between atoms: _415  and  _416
REMARK  174  A    between atoms: _420  and  _421
REMARK  175  A    between atoms: _426  and  _428
REMARK  176  A    between atoms: _428  and  _429
REMARK  177  A    between atoms: _428  and  _431
REMARK  178  A    between atoms: _434  and  _436
REMARK  179  A    between atoms: _436  and  _437
REMARK  180  A    between atoms: _436  and  _439
REMARK  181  A    between atoms: _439  and  _440
REMARK  182  A    between atoms: _445  and  _447
REMARK  183  A    between atoms: _447  and  _448
REMARK  184  A    between atoms: _447  and  _450
REMARK  185  A    between atoms: _450  and  _451
REMARK  186  A    between atoms: _454  and  _456
REMARK  187  A    between atoms: _456  and  _457
REMARK  188  A    between atoms: _456  and  _459
REMARK  189  A    between atoms: _459  and  _460
REMARK  190  A    between atoms: _463  and  _465
REMARK  191  A    between atoms: _465  and  _466
REMARK  192  A    between atoms: _468  and  _470
REMARK  193  A    between atoms: _470  and  _471
REMARK  194  A    between atoms: _470  and  _473
REMARK  195  A    between atoms: _473  and  _474
REMARK  196  A    between atoms: _474  and  _475
REMARK  197  A    between atoms: _475  and  _476
REMARK  198  A    between atoms: _485  and  _487
REMARK  199  A    between atoms: _487  and  _488
REMARK  200  A    between atoms: _487  and  _490
REMARK  201  A    between atoms: _490  and  _491
REMARK                            x       y       z     vdW  Elec       q    Type
REMARK                         _______ _______ _______ _____ _____    ______ ____
ROOT
ATOM      1  O   HOH     1      17.427  40.114  16.324  0.00  0.00    +0.000 OA
ENDROOT
TORSDOF 0
REMARK  Name = ../refined-set-2016/2qi7/2qi7_pocket.pdb
REMARK  201 active torsions:
REMARK  status: ('A' for Active; 'I' for Inactive)
REMARK    1  A    between atoms: _1  and  _3
REMARK    2  A    between atoms: _3  and  _4
REMARK    3  A    between atoms: _3  and  _6
REMARK    4  A    between atoms: _6  and  _7
REMARK    5  A    between atoms: _7  and  _8
REMARK    6  A    between atoms: _8  and  _9
REMARK    7  A    between atoms: _18  and  _20
REMARK    8  A    between atoms: _20  and  _21
REMARK    9  A    between atoms: _20  and  _23
REMARK   10  A    between atoms: _23  and  _24
REMARK   11  A    between atoms: _27  and  _29
REMARK   12  A    between atoms: _29  and  _30
REMARK   13  A    between atoms: _29  and  _32
REMARK   14  A    between atoms: _32  and  _33
REMARK   15  A    between atoms: _36  and  _38
REMARK   16  A    between atoms: _38  and  _39
REMARK   17  A    between atoms: _38  and  _41
REMARK   18  A    between atoms: _41  and  _42
REMARK   19  A    between atoms: _45  and  _47
REMARK   20  A    between atoms: _47  and  _48
REMARK   21  A    between atoms: _47  and  _50
REMARK   22  A    between atoms: _50  and  _51
REMARK   23  A    between atoms: _54  and  _56
REMARK   24  A    between atoms: _56  and  _57
REMARK   25  A    between atoms: _59  and  _61
REMARK   26  A    between atoms: _61  and  _62
REMARK   27  A    between atoms: _65  and  _67
REMARK   28  A    between atoms: _67  and  _68
REMARK   29  A    between atoms: _67  and  _70
REMARK   30  A    between atoms: _70  and  _71
REMARK   31  A    between atoms: _74  and  _76
REMARK   32  A    between atoms: _76  and  _77
REMARK   33  A    between atoms: _76  and  _79
REMARK   34  A    between atoms: _79  and  _80
REMARK   35  A    between atoms: _83  and  _85
REMARK   36  A    between atoms: _85  and  _86
REMARK   37  A    between atoms: _85  and  _88
REMARK   38  A    between atoms: _88  and  _89
REMARK   39  A    between atoms: _92  and  _94
REMARK   40  A    between atoms: _94  and  _95
REMARK   41  A    between atoms: _94  and  _97
REMARK   42  A    between atoms: _100  and  _102
REMARK   43  A    between atoms: _102  and  _103
REMARK   44  A    between atoms: _102  and  _105
REMARK   45  A    between atoms: _105  and  _106
REMARK   46  A    between atoms: _109  and  _111
REMARK   47  A    between atoms: _111  and  _112
REMARK   48  A    between atoms: _114  and  _116
REMARK   49  A    between atoms: _116  and  _117
REMARK   50  A    between atoms: _119  and  _121
REMARK   51  A    between atoms: _121  and  _122
REMARK   52  A    between atoms: _121  and  _124
REMARK   53  A    between atoms: _124  and  _125
REMARK   54  A    between atoms: _128  and  _130
REMARK   55  A    between atoms: _130  and  _131
REMARK   56  A    between atoms: _133  and  _135
REMARK   57  A    between atoms: _135  and  _136
REMARK   58  A    between atoms: _138  and  _140
REMARK   59  A    between atoms: _140  and  _141
REMARK   60  A    between atoms: _140  and  _143
REMARK   61  A    between atoms: _143  and  _144
REMARK   62  A    between atoms: _150  and  _152
REMARK   63  A    between atoms: _152  and  _153
REMARK   64  A    between atoms: _152  and  _155
REMARK   65  A    between atoms: _155  and  _156
REMARK   66  A    between atoms: _160  and  _161
REMARK   67  A    between atoms: _166  and  _168
REMARK   68  A    between atoms: _168  and  _169
REMARK   69  A    between atoms: _168  and  _171
REMARK   70  A    between atoms: _174  and  _176
REMARK   71  A    between atoms: _176  and  _177
REMARK   72  A    between atoms: _176  and  _179
REMARK   73  A    between atoms: _179  and  _180
REMARK   74  A    between atoms: _185  and  _187
REMARK   75  A    between atoms: _187  and  _188
REMARK   76  A    between atoms: _187  and  _190
REMARK   77  A    between atoms: _190  and  _191
REMARK   78  A    between atoms: _194  and  _196
REMARK   79  A    between atoms: _196  and  _197
REMARK   80  A    between atoms: _196  and  _199
REMARK   81  A    between atoms: _199  and  _200
REMARK   82  A    between atoms: _203  and  _205
REMARK   83  A    between atoms: _205  and  _206
REMARK   84  A    between atoms: _208  and  _210
REMARK   85  A    between atoms: _210  and  _211
REMARK   86  A    between atoms: _210  and  _213
REMARK   87  A    between atoms: _213  and  _214
REMARK   88  A    between atoms: _214  and  _215
REMARK   89  A    between atoms: _215  and  _216
REMARK   90  A    between atoms: _225  and  _227
REMARK   91  A    between atoms: _227  and  _228
REMARK   92  A    between atoms: _227  and  _230
REMARK   93  A    between atoms: _230  and  _231
REMARK   94  A    between atoms: _231  and  _232
REMARK   95  A    between atoms: _232  and  _233
REMARK   96  A    between atoms: _242  and  _244
REMARK   97  A    between atoms: _244  and  _245
REMARK   98  A    between atoms: _244  and  _247
REMARK   99  A    between atoms: _247  and  _248
REMARK  100  A    between atoms: _251  and  _253
REMARK  101  A    between atoms: _253  and  _254
REMARK  102  A    between atoms: _253  and  _256
REMARK  103  A    between atoms: _256  and  _257
REMARK  104  A    between atoms: _260  and  _262
REMARK  105  A    between atoms: _262  and  _263
REMARK  106  A    between atoms: _262  and  _265
REMARK  107  A    between atoms: _265  and  _266
REMARK  108  A    between atoms: _269  and  _271
REMARK  109  A    between atoms: _271  and  _272
REMARK  110  A    between atoms: _271  and  _274
REMARK  111  A    between atoms: _274  and  _275
REMARK  112  A    between atoms: _278  and  _280
REMARK  113  A    between atoms: _280  and  _281
REMARK  114  A    between atoms: _283  and  _285
REMARK  115  A    between atoms: _285  and  _286
REMARK  116  A    between atoms: _289  and  _291
REMARK  117  A    between atoms: _291  and  _292
REMARK  118  A    between atoms: _291  and  _294
REMARK  119  A    between atoms: _294  and  _295
REMARK  120  A    between atoms: _298  and  _300
REMARK  121  A    between atoms: _300  and  _301
REMARK  122  A    between atoms: _300  and  _303
REMARK  123  A    between atoms: _303  and  _304
REMARK  124  A    between atoms: _307  and  _309
REMARK  125  A    between atoms: _309  and  _310
REMARK  126  A    between atoms: _309  and  _312
REMARK  127  A    between atoms: _312  and  _313
REMARK  128  A    between atoms: _316  and  _318
REMARK  129  A    between atoms: _318  and  _319
REMARK  130  A    between atoms: _318  and  _321
REMARK  131  A    between atoms: _324  and  _326
REMARK  132  A    between atoms: _326  and  _327
REMARK  133  A    between atoms: _326  and  _329
REMARK  134  A    between atoms: _329  and  _330
REMARK  135  A    between atoms: _330  and  _331
REMARK  136  A    between atoms: _331  and  _332
REMARK  137  A    between atoms: _332  and  _333
REMARK  138  A    between atoms: _337  and  _339
REMARK  139  A    between atoms: _339  and  _340
REMARK  140  A    between atoms: _339  and  _342
REMARK  141  A    between atoms: _342  and  _343
REMARK  142  A    between atoms: _343  and  _344
REMARK  143  A    between atoms: _346  and  _348
REMARK  144  A    between atoms: _348  and  _349
REMARK  145  A    between atoms: _348  and  _351
REMARK  146  A    between atoms: _351  and  _352
REMARK  147  A    between atoms: _355  and  _357
REMARK  148  A    between atoms: _357  and  _358
REMARK  149  A    between atoms: _360  and  _362
REMARK  150  A    between atoms: _362  and  _363
REMARK  151  A    between atoms: _365  and  _367
REMARK  152  A    between atoms: _367  and  _368
REMARK  153  A    between atoms: _367  and  _370
REMARK  154  A    between atoms: _370  and  _371
REMARK  155  A    between atoms: _374  and  _376
REMARK  156  A    between atoms: _376  and  _377
REMARK  157  A    between atoms: _379  and  _381
REMARK  158  A    between atoms: _381  and  _382
REMARK  159  A    between atoms: _384  and  _386
REMARK  160  A    between atoms: _386  and  _387
REMARK  161  A    between atoms: _386  and  _389
REMARK  162  A    between atoms: _389  and  _390
REMARK  163  A    between atoms: _393  and  _395
REMARK  164  A    between atoms: _395  and  _396
REMARK  165  A    between atoms: _395  and  _398
REMARK  166  A    between atoms: _401  and  _403
REMARK  167  A    between atoms: _403  and  _404
REMARK  168  A    between atoms: _403  and  _406
REMARK  169  A    between atoms: _406  and  _407
REMARK  170  A    between atoms: _410  and  _412
REMARK  171  A    between atoms: _412  and  _413
REMARK  172  A    between atoms: _412  and  _415
REMARK  173  A    between atoms: _415  and  _416
REMARK  174  A    between atoms: _420  and  _421
REMARK  175  A    between atoms: _426  and  _428
REMARK  176  A    between atoms: _428  and  _429
REMARK  177  A    between atoms: _428  and  _431
REMARK  178  A    between atoms: _434  and  _436
REMARK  179  A    between atoms: _436  and  _437
REMARK  180  A    between atoms: _436  and  _439
REMARK  181  A    between atoms: _439  and  _440
REMARK  182  A    between atoms: _445  and  _447
REMARK  183  A    between atoms: _447  and  _448
REMARK  184  A    between atoms: _447  and  _450
REMARK  185  A    between atoms: _450  and  _451
REMARK  186  A    between atoms: _454  and  _456
REMARK  187  A    between atoms: _456  and  _457
REMARK  188  A    between atoms: _456  and  _459
REMARK  189  A    between atoms: _459  and  _460
REMARK  190  A    between atoms: _463  and  _465
REMARK  191  A    between atoms: _465  and  _466
REMARK  192  A    between atoms: _468  and  _470
REMARK  193  A    between atoms: _470  and  _471
REMARK  194  A    between atoms: _470  and  _473
REMARK  195  A    between atoms: _473  and  _474
REMARK  196  A    between atoms: _474  and  _475
REMARK  197  A    between atoms: _475  and  _476
REMARK  198  A    between atoms: _485  and  _487
REMARK  199  A    between atoms: _487  and  _488
REMARK  200  A    between atoms: _487  and  _490
REMARK  201  A    between atoms: _490  and  _491
REMARK                            x       y       z     vdW  Elec       q    Type
REMARK                         _______ _______ _______ _____ _____    ______ ____
ROOT
ATOM      1  O   HOH     1      18.492  34.642  19.565  0.00  0.00    +0.000 OA
ENDROOT
TORSDOF 0
REMARK  Name = ../refined-set-2016/2qi7/2qi7_pocket.pdb
REMARK  201 active torsions:
REMARK  status: ('A' for Active; 'I' for Inactive)
REMARK    1  A    between atoms: _1  and  _3
REMARK    2  A    between atoms: _3  and  _4
REMARK    3  A    between atoms: _3  and  _6
REMARK    4  A    between atoms: _6  and  _7
REMARK    5  A    between atoms: _7  and  _8
REMARK    6  A    between atoms: _8  and  _9
REMARK    7  A    between atoms: _18  and  _20
REMARK    8  A    between atoms: _20  and  _21
REMARK    9  A    between atoms: _20  and  _23
REMARK   10  A    between atoms: _23  and  _24
REMARK   11  A    between atoms: _27  and  _29
REMARK   12  A    between atoms: _29  and  _30
REMARK   13  A    between atoms: _29  and  _32
REMARK   14  A    between atoms: _32  and  _33
REMARK   15  A    between atoms: _36  and  _38
REMARK   16  A    between atoms: _38  and  _39
REMARK   17  A    between atoms: _38  and  _41
REMARK   18  A    between atoms: _41  and  _42
REMARK   19  A    between atoms: _45  and  _47
REMARK   20  A    between atoms: _47  and  _48
REMARK   21  A    between atoms: _47  and  _50
REMARK   22  A    between atoms: _50  and  _51
REMARK   23  A    between atoms: _54  and  _56
REMARK   24  A    between atoms: _56  and  _57
REMARK   25  A    between atoms: _59  and  _61
REMARK   26  A    between atoms: _61  and  _62
REMARK   27  A    between atoms: _65  and  _67
REMARK   28  A    between atoms: _67  and  _68
REMARK   29  A    between atoms: _67  and  _70
REMARK   30  A    between atoms: _70  and  _71
REMARK   31  A    between atoms: _74  and  _76
REMARK   32  A    between atoms: _76  and  _77
REMARK   33  A    between atoms: _76  and  _79
REMARK   34  A    between atoms: _79  and  _80
REMARK   35  A    between atoms: _83  and  _85
REMARK   36  A    between atoms: _85  and  _86
REMARK   37  A    between atoms: _85  and  _88
REMARK   38  A    between atoms: _88  and  _89
REMARK   39  A    between atoms: _92  and  _94
REMARK   40  A    between atoms: _94  and  _95
REMARK   41  A    between atoms: _94  and  _97
REMARK   42  A    between atoms: _100  and  _102
REMARK   43  A    between atoms: _102  and  _103
REMARK   44  A    between atoms: _102  and  _105
REMARK   45  A    between atoms: _105  and  _106
REMARK   46  A    between atoms: _109  and  _111
REMARK   47  A    between atoms: _111  and  _112
REMARK   48  A    between atoms: _114  and  _116
REMARK   49  A    between atoms: _116  and  _117
REMARK   50  A    between atoms: _119  and  _121
REMARK   51  A    between atoms: _121  and  _122
REMARK   52  A    between atoms: _121  and  _124
REMARK   53  A    between atoms: _124  and  _125
REMARK   54  A    between atoms: _128  and  _130
REMARK   55  A    between atoms: _130  and  _131
REMARK   56  A    between atoms: _133  and  _135
REMARK   57  A    between atoms: _135  and  _136
REMARK   58  A    between atoms: _138  and  _140
REMARK   59  A    between atoms: _140  and  _141
REMARK   60  A    between atoms: _140  and  _143
REMARK   61  A    between atoms: _143  and  _144
REMARK   62  A    between atoms: _150  and  _152
REMARK   63  A    between atoms: _152  and  _153
REMARK   64  A    between atoms: _152  and  _155
REMARK   65  A    between atoms: _155  and  _156
REMARK   66  A    between atoms: _160  and  _161
REMARK   67  A    between atoms: _166  and  _168
REMARK   68  A    between atoms: _168  and  _169
REMARK   69  A    between atoms: _168  and  _171
REMARK   70  A    between atoms: _174  and  _176
REMARK   71  A    between atoms: _176  and  _177
REMARK   72  A    between atoms: _176  and  _179
REMARK   73  A    between atoms: _179  and  _180
REMARK   74  A    between atoms: _185  and  _187
REMARK   75  A    between atoms: _187  and  _188
REMARK   76  A    between atoms: _187  and  _190
REMARK   77  A    between atoms: _190  and  _191
REMARK   78  A    between atoms: _194  and  _196
REMARK   79  A    between atoms: _196  and  _197
REMARK   80  A    between atoms: _196  and  _199
REMARK   81  A    between atoms: _199  and  _200
REMARK   82  A    between atoms: _203  and  _205
REMARK   83  A    between atoms: _205  and  _206
REMARK   84  A    between atoms: _208  and  _210
REMARK   85  A    between atoms: _210  and  _211
REMARK   86  A    between atoms: _210  and  _213
REMARK   87  A    between atoms: _213  and  _214
REMARK   88  A    between atoms: _214  and  _215
REMARK   89  A    between atoms: _215  and  _216
REMARK   90  A    between atoms: _225  and  _227
REMARK   91  A    between atoms: _227  and  _228
REMARK   92  A    between atoms: _227  and  _230
REMARK   93  A    between atoms: _230  and  _231
REMARK   94  A    between atoms: _231  and  _232
REMARK   95  A    between atoms: _232  and  _233
REMARK   96  A    between atoms: _242  and  _244
REMARK   97  A    between atoms: _244  and  _245
REMARK   98  A    between atoms: _244  and  _247
REMARK   99  A    between atoms: _247  and  _248
REMARK  100  A    between atoms: _251  and  _253
REMARK  101  A    between atoms: _253  and  _254
REMARK  102  A    between atoms: _253  and  _256
REMARK  103  A    between atoms: _256  and  _257
REMARK  104  A    between atoms: _260  and  _262
REMARK  105  A    between atoms: _262  and  _263
REMARK  106  A    between atoms: _262  and  _265
REMARK  107  A    between atoms: _265  and  _266
REMARK  108  A    between atoms: _269  and  _271
REMARK  109  A    between atoms: _271  and  _272
REMARK  110  A    between atoms: _271  and  _274
REMARK  111  A    between atoms: _274  and  _275
REMARK  112  A    between atoms: _278  and  _280
REMARK  113  A    between atoms: _280  and  _281
REMARK  114  A    between atoms: _283  and  _285
REMARK  115  A    between atoms: _285  and  _286
REMARK  116  A    between atoms: _289  and  _291
REMARK  117  A    between atoms: _291  and  _292
REMARK  118  A    between atoms: _291  and  _294
REMARK  119  A    between atoms: _294  and  _295
REMARK  120  A    between atoms: _298  and  _300
REMARK  121  A    between atoms: _300  and  _301
REMARK  122  A    between atoms: _300  and  _303
REMARK  123  A    between atoms: _303  and  _304
REMARK  124  A    between atoms: _307  and  _309
REMARK  125  A    between atoms: _309  and  _310
REMARK  126  A    between atoms: _309  and  _312
REMARK  127  A    between atoms: _312  and  _313
REMARK  128  A    between atoms: _316  and  _318
REMARK  129  A    between atoms: _318  and  _319
REMARK  130  A    between atoms: _318  and  _321
REMARK  131  A    between atoms: _324  and  _326
REMARK  132  A    between atoms: _326  and  _327
REMARK  133  A    between atoms: _326  and  _329
REMARK  134  A    between atoms: _329  and  _330
REMARK  135  A    between atoms: _330  and  _331
REMARK  136  A    between atoms: _331  and  _332
REMARK  137  A    between atoms: _332  and  _333
REMARK  138  A    between atoms: _337  and  _339
REMARK  139  A    between atoms: _339  and  _340
REMARK  140  A    between atoms: _339  and  _342
REMARK  141  A    between atoms: _342  and  _343
REMARK  142  A    between atoms: _343  and  _344
REMARK  143  A    between atoms: _346  and  _348
REMARK  144  A    between atoms: _348  and  _349
REMARK  145  A    between atoms: _348  and  _351
REMARK  146  A    between atoms: _351  and  _352
REMARK  147  A    between atoms: _355  and  _357
REMARK  148  A    between atoms: _357  and  _358
REMARK  149  A    between atoms: _360  and  _362
REMARK  150  A    between atoms: _362  and  _363
REMARK  151  A    between atoms: _365  and  _367
REMARK  152  A    between atoms: _367  and  _368
REMARK  153  A    between atoms: _367  and  _370
REMARK  154  A    between atoms: _370  and  _371
REMARK  155  A    between atoms: _374  and  _376
REMARK  156  A    between atoms: _376  and  _377
REMARK  157  A    between atoms: _379  and  _381
REMARK  158  A    between atoms: _381  and  _382
REMARK  159  A    between atoms: _384  and  _386
REMARK  160  A    between atoms: _386  and  _387
REMARK  161  A    between atoms: _386  and  _389
REMARK  162  A    between atoms: _389  and  _390
REMARK  163  A    between atoms: _393  and  _395
REMARK  164  A    between atoms: _395  and  _396
REMARK  165  A    between atoms: _395  and  _398
REMARK  166  A    between atoms: _401  and  _403
REMARK  167  A    between atoms: _403  and  _404
REMARK  168  A    between atoms: _403  and  _406
REMARK  169  A    between atoms: _406  and  _407
REMARK  170  A    between atoms: _410  and  _412
REMARK  171  A    between atoms: _412  and  _413
REMARK  172  A    between atoms: _412  and  _415
REMARK  173  A    between atoms: _415  and  _416
REMARK  174  A    between atoms: _420  and  _421
REMARK  175  A    between atoms: _426  and  _428
REMARK  176  A    between atoms: _428  and  _429
REMARK  177  A    between atoms: _428  and  _431
REMARK  178  A    between atoms: _434  and  _436
REMARK  179  A    between atoms: _436  and  _437
REMARK  180  A    between atoms: _436  and  _439
REMARK  181  A    between atoms: _439  and  _440
REMARK  182  A    between atoms: _445  and  _447
REMARK  183  A    between atoms: _447  and  _448
REMARK  184  A    between atoms: _447  and  _450
REMARK  185  A    between atoms: _450  and  _451
REMARK  186  A    between atoms: _454  and  _456
REMARK  187  A    between atoms: _456  and  _457
REMARK  188  A    between atoms: _456  and  _459
REMARK  189  A    between atoms: _459  and  _460
REMARK  190  A    between atoms: _463  and  _465
REMARK  191  A    between atoms: _465  and  _466
REMARK  192  A    between atoms: _468  and  _470
REMARK  193  A    between atoms: _470  and  _471
REMARK  194  A    between atoms: _470  and  _473
REMARK  195  A    between atoms: _473  and  _474
REMARK  196  A    between atoms: _474  and  _475
REMARK  197  A    between atoms: _475  and  _476
REMARK  198  A    between atoms: _485  and  _487
REMARK  199  A    between atoms: _487  and  _488
REMARK  200  A    between atoms: _487  and  _490
REMARK  201  A    between atoms: _490  and  _491
REMARK                            x       y       z     vdW  Elec       q    Type
REMARK                         _______ _______ _______ _____ _____    ______ ____
ROOT
ATOM      1  O   HOH     1      15.400  18.744  10.023  0.00  0.00    +0.000 OA
ENDROOT
TORSDOF 0
REMARK  Name = ../refined-set-2016/2qi7/2qi7_pocket.pdb
REMARK  201 active torsions:
REMARK  status: ('A' for Active; 'I' for Inactive)
REMARK    1  A    between atoms: _1  and  _3
REMARK    2  A    between atoms: _3  and  _4
REMARK    3  A    between atoms: _3  and  _6
REMARK    4  A    between atoms: _6  and  _7
REMARK    5  A    between atoms: _7  and  _8
REMARK    6  A    between atoms: _8  and  _9
REMARK    7  A    between atoms: _18  and  _20
REMARK    8  A    between atoms: _20  and  _21
REMARK    9  A    between atoms: _20  and  _23
REMARK   10  A    between atoms: _23  and  _24
REMARK   11  A    between atoms: _27  and  _29
REMARK   12  A    between atoms: _29  and  _30
REMARK   13  A    between atoms: _29  and  _32
REMARK   14  A    between atoms: _32  and  _33
REMARK   15  A    between atoms: _36  and  _38
REMARK   16  A    between atoms: _38  and  _39
REMARK   17  A    between atoms: _38  and  _41
REMARK   18  A    between atoms: _41  and  _42
REMARK   19  A    between atoms: _45  and  _47
REMARK   20  A    between atoms: _47  and  _48
REMARK   21  A    between atoms: _47  and  _50
REMARK   22  A    between atoms: _50  and  _51
REMARK   23  A    between atoms: _54  and  _56
REMARK   24  A    between atoms: _56  and  _57
REMARK   25  A    between atoms: _59  and  _61
REMARK   26  A    between atoms: _61  and  _62
REMARK   27  A    between atoms: _65  and  _67
REMARK   28  A    between atoms: _67  and  _68
REMARK   29  A    between atoms: _67  and  _70
REMARK   30  A    between atoms: _70  and  _71
REMARK   31  A    between atoms: _74  and  _76
REMARK   32  A    between atoms: _76  and  _77
REMARK   33  A    between atoms: _76  and  _79
REMARK   34  A    between atoms: _79  and  _80
REMARK   35  A    between atoms: _83  and  _85
REMARK   36  A    between atoms: _85  and  _86
REMARK   37  A    between atoms: _85  and  _88
REMARK   38  A    between atoms: _88  and  _89
REMARK   39  A    between atoms: _92  and  _94
REMARK   40  A    between atoms: _94  and  _95
REMARK   41  A    between atoms: _94  and  _97
REMARK   42  A    between atoms: _100  and  _102
REMARK   43  A    between atoms: _102  and  _103
REMARK   44  A    between atoms: _102  and  _105
REMARK   45  A    between atoms: _105  and  _106
REMARK   46  A    between atoms: _109  and  _111
REMARK   47  A    between atoms: _111  and  _112
REMARK   48  A    between atoms: _114  and  _116
REMARK   49  A    between atoms: _116  and  _117
REMARK   50  A    between atoms: _119  and  _121
REMARK   51  A    between atoms: _121  and  _122
REMARK   52  A    between atoms: _121  and  _124
REMARK   53  A    between atoms: _124  and  _125
REMARK   54  A    between atoms: _128  and  _130
REMARK   55  A    between atoms: _130  and  _131
REMARK   56  A    between atoms: _133  and  _135
REMARK   57  A    between atoms: _135  and  _136
REMARK   58  A    between atoms: _138  and  _140
REMARK   59  A    between atoms: _140  and  _141
REMARK   60  A    between atoms: _140  and  _143
REMARK   61  A    between atoms: _143  and  _144
REMARK   62  A    between atoms: _150  and  _152
REMARK   63  A    between atoms: _152  and  _153
REMARK   64  A    between atoms: _152  and  _155
REMARK   65  A    between atoms: _155  and  _156
REMARK   66  A    between atoms: _160  and  _161
REMARK   67  A    between atoms: _166  and  _168
REMARK   68  A    between atoms: _168  and  _169
REMARK   69  A    between atoms: _168  and  _171
REMARK   70  A    between atoms: _174  and  _176
REMARK   71  A    between atoms: _176  and  _177
REMARK   72  A    between atoms: _176  and  _179
REMARK   73  A    between atoms: _179  and  _180
REMARK   74  A    between atoms: _185  and  _187
REMARK   75  A    between atoms: _187  and  _188
REMARK   76  A    between atoms: _187  and  _190
REMARK   77  A    between atoms: _190  and  _191
REMARK   78  A    between atoms: _194  and  _196
REMARK   79  A    between atoms: _196  and  _197
REMARK   80  A    between atoms: _196  and  _199
REMARK   81  A    between atoms: _199  and  _200
REMARK   82  A    between atoms: _203  and  _205
REMARK   83  A    between atoms: _205  and  _206
REMARK   84  A    between atoms: _208  and  _210
REMARK   85  A    between atoms: _210  and  _211
REMARK   86  A    between atoms: _210  and  _213
REMARK   87  A    between atoms: _213  and  _214
REMARK   88  A    between atoms: _214  and  _215
REMARK   89  A    between atoms: _215  and  _216
REMARK   90  A    between atoms: _225  and  _227
REMARK   91  A    between atoms: _227  and  _228
REMARK   92  A    between atoms: _227  and  _230
REMARK   93  A    between atoms: _230  and  _231
REMARK   94  A    between atoms: _231  and  _232
REMARK   95  A    between atoms: _232  and  _233
REMARK   96  A    between atoms: _242  and  _244
REMARK   97  A    between atoms: _244  and  _245
REMARK   98  A    between atoms: _244  and  _247
REMARK   99  A    between atoms: _247  and  _248
REMARK  100  A    between atoms: _251  and  _253
REMARK  101  A    between atoms: _253  and  _254
REMARK  102  A    between atoms: _253  and  _256
REMARK  103  A    between atoms: _256  and  _257
REMARK  104  A    between atoms: _260  and  _262
REMARK  105  A    between atoms: _262  and  _263
REMARK  106  A    between atoms: _262  and  _265
REMARK  107  A    between atoms: _265  and  _266
REMARK  108  A    between atoms: _269  and  _271
REMARK  109  A    between atoms: _271  and  _272
REMARK  110  A    between atoms: _271  and  _274
REMARK  111  A    between atoms: _274  and  _275
REMARK  112  A    between atoms: _278  and  _280
REMARK  113  A    between atoms: _280  and  _281
REMARK  114  A    between atoms: _283  and  _285
REMARK  115  A    between atoms: _285  and  _286
REMARK  116  A    between atoms: _289  and  _291
REMARK  117  A    between atoms: _291  and  _292
REMARK  118  A    between atoms: _291  and  _294
REMARK  119  A    between atoms: _294  and  _295
REMARK  120  A    between atoms: _298  and  _300
REMARK  121  A    between atoms: _300  and  _301
REMARK  122  A    between atoms: _300  and  _303
REMARK  123  A    between atoms: _303  and  _304
REMARK  124  A    between atoms: _307  and  _309
REMARK  125  A    between atoms: _309  and  _310
REMARK  126  A    between atoms: _309  and  _312
REMARK  127  A    between atoms: _312  and  _313
REMARK  128  A    between atoms: _316  and  _318
REMARK  129  A    between atoms: _318  and  _319
REMARK  130  A    between atoms: _318  and  _321
REMARK  131  A    between atoms: _324  and  _326
REMARK  132  A    between atoms: _326  and  _327
REMARK  133  A    between atoms: _326  and  _329
REMARK  134  A    between atoms: _329  and  _330
REMARK  135  A    between atoms: _330  and  _331
REMARK  136  A    between atoms: _331  and  _332
REMARK  137  A    between atoms: _332  and  _333
REMARK  138  A    between atoms: _337  and  _339
REMARK  139  A    between atoms: _339  and  _340
REMARK  140  A    between atoms: _339  and  _342
REMARK  141  A    between atoms: _342  and  _343
REMARK  142  A    between atoms: _343  and  _344
REMARK  143  A    between atoms: _346  and  _348
REMARK  144  A    between atoms: _348  and  _349
REMARK  145  A    between atoms: _348  and  _351
REMARK  146  A    between atoms: _351  and  _352
REMARK  147  A    between atoms: _355  and  _357
REMARK  148  A    between atoms: _357  and  _358
REMARK  149  A    between atoms: _360  and  _362
REMARK  150  A    between atoms: _362  and  _363
REMARK  151  A    between atoms: _365  and  _367
REMARK  152  A    between atoms: _367  and  _368
REMARK  153  A    between atoms: _367  and  _370
REMARK  154  A    between atoms: _370  and  _371
REMARK  155  A    between atoms: _374  and  _376
REMARK  156  A    between atoms: _376  and  _377
REMARK  157  A    between atoms: _379  and  _381
REMARK  158  A    between atoms: _381  and  _382
REMARK  159  A    between atoms: _384  and  _386
REMARK  160  A    between atoms: _386  and  _387
REMARK  161  A    between atoms: _386  and  _389
REMARK  162  A    between atoms: _389  and  _390
REMARK  163  A    between atoms: _393  and  _395
REMARK  164  A    between atoms: _395  and  _396
REMARK  165  A    between atoms: _395  and  _398
REMARK  166  A    between atoms: _401  and  _403
REMARK  167  A    between atoms: _403  and  _404
REMARK  168  A    between atoms: _403  and  _406
REMARK  169  A    between atoms: _406  and  _407
REMARK  170  A    between atoms: _410  and  _412
REMARK  171  A    between atoms: _412  and  _413
REMARK  172  A    between atoms: _412  and  _415
REMARK  173  A    between atoms: _415  and  _416
REMARK  174  A    between atoms: _420  and  _421
REMARK  175  A    between atoms: _426  and  _428
REMARK  176  A    between atoms: _428  and  _429
REMARK  177  A    between atoms: _428  and  _431
REMARK  178  A    between atoms: _434  and  _436
REMARK  179  A    between atoms: _436  and  _437
REMARK  180  A    between atoms: _436  and  _439
REMARK  181  A    between atoms: _439  and  _440
REMARK  182  A    between atoms: _445  and  _447
REMARK  183  A    between atoms: _447  and  _448
REMARK  184  A    between atoms: _447  and  _450
REMARK  185  A    between atoms: _450  and  _451
REMARK  186  A    between atoms: _454  and  _456
REMARK  187  A    between atoms: _456  and  _457
REMARK  188  A    between atoms: _456  and  _459
REMARK  189  A    between atoms: _459  and  _460
REMARK  190  A    between atoms: _463  and  _465
REMARK  191  A    between atoms: _465  and  _466
REMARK  192  A    between atoms: _468  and  _470
REMARK  193  A    between atoms: _470  and  _471
REMARK  194  A    between atoms: _470  and  _473
REMARK  195  A    between atoms: _473  and  _474
REMARK  196  A    between atoms: _474  and  _475
REMARK  197  A    between atoms: _475  and  _476
REMARK  198  A    between atoms: _485  and  _487
REMARK  199  A    between atoms: _487  and  _488
REMARK  200  A    between atoms: _487  and  _490
REMARK  201  A    between atoms: _490  and  _491
REMARK                            x       y       z     vdW  Elec       q    Type
REMARK                         _______ _______ _______ _____ _____    ______ ____
ROOT
ATOM      1  O   HOH     1      14.187  34.977  26.125  0.00  0.00    +0.000 OA
ENDROOT
TORSDOF 0
REMARK  Name = ../refined-set-2016/2qi7/2qi7_pocket.pdb
REMARK  201 active torsions:
REMARK  status: ('A' for Active; 'I' for Inactive)
REMARK    1  A    between atoms: _1  and  _3
REMARK    2  A    between atoms: _3  and  _4
REMARK    3  A    between atoms: _3  and  _6
REMARK    4  A    between atoms: _6  and  _7
REMARK    5  A    between atoms: _7  and  _8
REMARK    6  A    between atoms: _8  and  _9
REMARK    7  A    between atoms: _18  and  _20
REMARK    8  A    between atoms: _20  and  _21
REMARK    9  A    between atoms: _20  and  _23
REMARK   10  A    between atoms: _23  and  _24
REMARK   11  A    between atoms: _27  and  _29
REMARK   12  A    between atoms: _29  and  _30
REMARK   13  A    between atoms: _29  and  _32
REMARK   14  A    between atoms: _32  and  _33
REMARK   15  A    between atoms: _36  and  _38
REMARK   16  A    between atoms: _38  and  _39
REMARK   17  A    between atoms: _38  and  _41
REMARK   18  A    between atoms: _41  and  _42
REMARK   19  A    between atoms: _45  and  _47
REMARK   20  A    between atoms: _47  and  _48
REMARK   21  A    between atoms: _47  and  _50
REMARK   22  A    between atoms: _50  and  _51
REMARK   23  A    between atoms: _54  and  _56
REMARK   24  A    between atoms: _56  and  _57
REMARK   25  A    between atoms: _59  and  _61
REMARK   26  A    between atoms: _61  and  _62
REMARK   27  A    between atoms: _65  and  _67
REMARK   28  A    between atoms: _67  and  _68
REMARK   29  A    between atoms: _67  and  _70
REMARK   30  A    between atoms: _70  and  _71
REMARK   31  A    between atoms: _74  and  _76
REMARK   32  A    between atoms: _76  and  _77
REMARK   33  A    between atoms: _76  and  _79
REMARK   34  A    between atoms: _79  and  _80
REMARK   35  A    between atoms: _83  and  _85
REMARK   36  A    between atoms: _85  and  _86
REMARK   37  A    between atoms: _85  and  _88
REMARK   38  A    between atoms: _88  and  _89
REMARK   39  A    between atoms: _92  and  _94
REMARK   40  A    between atoms: _94  and  _95
REMARK   41  A    between atoms: _94  and  _97
REMARK   42  A    between atoms: _100  and  _102
REMARK   43  A    between atoms: _102  and  _103
REMARK   44  A    between atoms: _102  and  _105
REMARK   45  A    between atoms: _105  and  _106
REMARK   46  A    between atoms: _109  and  _111
REMARK   47  A    between atoms: _111  and  _112
REMARK   48  A    between atoms: _114  and  _116
REMARK   49  A    between atoms: _116  and  _117
REMARK   50  A    between atoms: _119  and  _121
REMARK   51  A    between atoms: _121  and  _122
REMARK   52  A    between atoms: _121  and  _124
REMARK   53  A    between atoms: _124  and  _125
REMARK   54  A    between atoms: _128  and  _130
REMARK   55  A    between atoms: _130  and  _131
REMARK   56  A    between atoms: _133  and  _135
REMARK   57  A    between atoms: _135  and  _136
REMARK   58  A    between atoms: _138  and  _140
REMARK   59  A    between atoms: _140  and  _141
REMARK   60  A    between atoms: _140  and  _143
REMARK   61  A    between atoms: _143  and  _144
REMARK   62  A    between atoms: _150  and  _152
REMARK   63  A    between atoms: _152  and  _153
REMARK   64  A    between atoms: _152  and  _155
REMARK   65  A    between atoms: _155  and  _156
REMARK   66  A    between atoms: _160  and  _161
REMARK   67  A    between atoms: _166  and  _168
REMARK   68  A    between atoms: _168  and  _169
REMARK   69  A    between atoms: _168  and  _171
REMARK   70  A    between atoms: _174  and  _176
REMARK   71  A    between atoms: _176  and  _177
REMARK   72  A    between atoms: _176  and  _179
REMARK   73  A    between atoms: _179  and  _180
REMARK   74  A    between atoms: _185  and  _187
REMARK   75  A    between atoms: _187  and  _188
REMARK   76  A    between atoms: _187  and  _190
REMARK   77  A    between atoms: _190  and  _191
REMARK   78  A    between atoms: _194  and  _196
REMARK   79  A    between atoms: _196  and  _197
REMARK   80  A    between atoms: _196  and  _199
REMARK   81  A    between atoms: _199  and  _200
REMARK   82  A    between atoms: _203  and  _205
REMARK   83  A    between atoms: _205  and  _206
REMARK   84  A    between atoms: _208  and  _210
REMARK   85  A    between atoms: _210  and  _211
REMARK   86  A    between atoms: _210  and  _213
REMARK   87  A    between atoms: _213  and  _214
REMARK   88  A    between atoms: _214  and  _215
REMARK   89  A    between atoms: _215  and  _216
REMARK   90  A    between atoms: _225  and  _227
REMARK   91  A    between atoms: _227  and  _228
REMARK   92  A    between atoms: _227  and  _230
REMARK   93  A    between atoms: _230  and  _231
REMARK   94  A    between atoms: _231  and  _232
REMARK   95  A    between atoms: _232  and  _233
REMARK   96  A    between atoms: _242  and  _244
REMARK   97  A    between atoms: _244  and  _245
REMARK   98  A    between atoms: _244  and  _247
REMARK   99  A    between atoms: _247  and  _248
REMARK  100  A    between atoms: _251  and  _253
REMARK  101  A    between atoms: _253  and  _254
REMARK  102  A    between atoms: _253  and  _256
REMARK  103  A    between atoms: _256  and  _257
REMARK  104  A    between atoms: _260  and  _262
REMARK  105  A    between atoms: _262  and  _263
REMARK  106  A    between atoms: _262  and  _265
REMARK  107  A    between atoms: _265  and  _266
REMARK  108  A    between atoms: _269  and  _271
REMARK  109  A    between atoms: _271  and  _272
REMARK  110  A    between atoms: _271  and  _274
REMARK  111  A    between atoms: _274  and  _275
REMARK  112  A    between atoms: _278  and  _280
REMARK  113  A    between atoms: _280  and  _281
REMARK  114  A    between atoms: _283  and  _285
REMARK  115  A    between atoms: _285  and  _286
REMARK  116  A    between atoms: _289  and  _291
REMARK  117  A    between atoms: _291  and  _292
REMARK  118  A    between atoms: _291  and  _294
REMARK  119  A    between atoms: _294  and  _295
REMARK  120  A    between atoms: _298  and  _300
REMARK  121  A    between atoms: _300  and  _301
REMARK  122  A    between atoms: _300  and  _303
REMARK  123  A    between atoms: _303  and  _304
REMARK  124  A    between atoms: _307  and  _309
REMARK  125  A    between atoms: _309  and  _310
REMARK  126  A    between atoms: _309  and  _312
REMARK  127  A    between atoms: _312  and  _313
REMARK  128  A    between atoms: _316  and  _318
REMARK  129  A    between atoms: _318  and  _319
REMARK  130  A    between atoms: _318  and  _321
REMARK  131  A    between atoms: _324  and  _326
REMARK  132  A    between atoms: _326  and  _327
REMARK  133  A    between atoms: _326  and  _329
REMARK  134  A    between atoms: _329  and  _330
REMARK  135  A    between atoms: _330  and  _331
REMARK  136  A    between atoms: _331  and  _332
REMARK  137  A    between atoms: _332  and  _333
REMARK  138  A    between atoms: _337  and  _339
REMARK  139  A    between atoms: _339  and  _340
REMARK  140  A    between atoms: _339  and  _342
REMARK  141  A    between atoms: _342  and  _343
REMARK  142  A    between atoms: _343  and  _344
REMARK  143  A    between atoms: _346  and  _348
REMARK  144  A    between atoms: _348  and  _349
REMARK  145  A    between atoms: _348  and  _351
REMARK  146  A    between atoms: _351  and  _352
REMARK  147  A    between atoms: _355  and  _357
REMARK  148  A    between atoms: _357  and  _358
REMARK  149  A    between atoms: _360  and  _362
REMARK  150  A    between atoms: _362  and  _363
REMARK  151  A    between atoms: _365  and  _367
REMARK  152  A    between atoms: _367  and  _368
REMARK  153  A    between atoms: _367  and  _370
REMARK  154  A    between atoms: _370  and  _371
REMARK  155  A    between atoms: _374  and  _376
REMARK  156  A    between atoms: _376  and  _377
REMARK  157  A    between atoms: _379  and  _381
REMARK  158  A    between atoms: _381  and  _382
REMARK  159  A    between atoms: _384  and  _386
REMARK  160  A    between atoms: _386  and  _387
REMARK  161  A    between atoms: _386  and  _389
REMARK  162  A    between atoms: _389  and  _390
REMARK  163  A    between atoms: _393  and  _395
REMARK  164  A    between atoms: _395  and  _396
REMARK  165  A    between atoms: _395  and  _398
REMARK  166  A    between atoms: _401  and  _403
REMARK  167  A    between atoms: _403  and  _404
REMARK  168  A    between atoms: _403  and  _406
REMARK  169  A    between atoms: _406  and  _407
REMARK  170  A    between atoms: _410  and  _412
REMARK  171  A    between atoms: _412  and  _413
REMARK  172  A    between atoms: _412  and  _415
REMARK  173  A    between atoms: _415  and  _416
REMARK  174  A    between atoms: _420  and  _421
REMARK  175  A    between atoms: _426  and  _428
REMARK  176  A    between atoms: _428  and  _429
REMARK  177  A    between atoms: _428  and  _431
REMARK  178  A    between atoms: _434  and  _436
REMARK  179  A    between atoms: _436  and  _437
REMARK  180  A    between atoms: _436  and  _439
REMARK  181  A    between atoms: _439  and  _440
REMARK  182  A    between atoms: _445  and  _447
REMARK  183  A    between atoms: _447  and  _448
REMARK  184  A    between atoms: _447  and  _450
REMARK  185  A    between atoms: _450  and  _451
REMARK  186  A    between atoms: _454  and  _456
REMARK  187  A    between atoms: _456  and  _457
REMARK  188  A    between atoms: _456  and  _459
REMARK  189  A    between atoms: _459  and  _460
REMARK  190  A    between atoms: _463  and  _465
REMARK  191  A    between atoms: _465  and  _466
REMARK  192  A    between atoms: _468  and  _470
REMARK  193  A    between atoms: _470  and  _471
REMARK  194  A    between atoms: _470  and  _473
REMARK  195  A    between atoms: _473  and  _474
REMARK  196  A    between atoms: _474  and  _475
REMARK  197  A    between atoms: _475  and  _476
REMARK  198  A    between atoms: _485  and  _487
REMARK  199  A    between atoms: _487  and  _488
REMARK  200  A    between atoms: _487  and  _490
REMARK  201  A    between atoms: _490  and  _491
REMARK                            x       y       z     vdW  Elec       q    Type
REMARK                         _______ _______ _______ _____ _____    ______ ____
ROOT
ATOM      1  O   HOH     1      15.036  21.034  11.126  0.00  0.00    +0.000 OA
ENDROOT
TORSDOF 0
REMARK  Name = ../refined-set-2016/2qi7/2qi7_pocket.pdb
REMARK  201 active torsions:
REMARK  status: ('A' for Active; 'I' for Inactive)
REMARK    1  A    between atoms: _1  and  _3
REMARK    2  A    between atoms: _3  and  _4
REMARK    3  A    between atoms: _3  and  _6
REMARK    4  A    between atoms: _6  and  _7
REMARK    5  A    between atoms: _7  and  _8
REMARK    6  A    between atoms: _8  and  _9
REMARK    7  A    between atoms: _18  and  _20
REMARK    8  A    between atoms: _20  and  _21
REMARK    9  A    between atoms: _20  and  _23
REMARK   10  A    between atoms: _23  and  _24
REMARK   11  A    between atoms: _27  and  _29
REMARK   12  A    between atoms: _29  and  _30
REMARK   13  A    between atoms: _29  and  _32
REMARK   14  A    between atoms: _32  and  _33
REMARK   15  A    between atoms: _36  and  _38
REMARK   16  A    between atoms: _38  and  _39
REMARK   17  A    between atoms: _38  and  _41
REMARK   18  A    between atoms: _41  and  _42
REMARK   19  A    between atoms: _45  and  _47
REMARK   20  A    between atoms: _47  and  _48
REMARK   21  A    between atoms: _47  and  _50
REMARK   22  A    between atoms: _50  and  _51
REMARK   23  A    between atoms: _54  and  _56
REMARK   24  A    between atoms: _56  and  _57
REMARK   25  A    between atoms: _59  and  _61
REMARK   26  A    between atoms: _61  and  _62
REMARK   27  A    between atoms: _65  and  _67
REMARK   28  A    between atoms: _67  and  _68
REMARK   29  A    between atoms: _67  and  _70
REMARK   30  A    between atoms: _70  and  _71
REMARK   31  A    between atoms: _74  and  _76
REMARK   32  A    between atoms: _76  and  _77
REMARK   33  A    between atoms: _76  and  _79
REMARK   34  A    between atoms: _79  and  _80
REMARK   35  A    between atoms: _83  and  _85
REMARK   36  A    between atoms: _85  and  _86
REMARK   37  A    between atoms: _85  and  _88
REMARK   38  A    between atoms: _88  and  _89
REMARK   39  A    between atoms: _92  and  _94
REMARK   40  A    between atoms: _94  and  _95
REMARK   41  A    between atoms: _94  and  _97
REMARK   42  A    between atoms: _100  and  _102
REMARK   43  A    between atoms: _102  and  _103
REMARK   44  A    between atoms: _102  and  _105
REMARK   45  A    between atoms: _105  and  _106
REMARK   46  A    between atoms: _109  and  _111
REMARK   47  A    between atoms: _111  and  _112
REMARK   48  A    between atoms: _114  and  _116
REMARK   49  A    between atoms: _116  and  _117
REMARK   50  A    between atoms: _119  and  _121
REMARK   51  A    between atoms: _121  and  _122
REMARK   52  A    between atoms: _121  and  _124
REMARK   53  A    between atoms: _124  and  _125
REMARK   54  A    between atoms: _128  and  _130
REMARK   55  A    between atoms: _130  and  _131
REMARK   56  A    between atoms: _133  and  _135
REMARK   57  A    between atoms: _135  and  _136
REMARK   58  A    between atoms: _138  and  _140
REMARK   59  A    between atoms: _140  and  _141
REMARK   60  A    between atoms: _140  and  _143
REMARK   61  A    between atoms: _143  and  _144
REMARK   62  A    between atoms: _150  and  _152
REMARK   63  A    between atoms: _152  and  _153
REMARK   64  A    between atoms: _152  and  _155
REMARK   65  A    between atoms: _155  and  _156
REMARK   66  A    between atoms: _160  and  _161
REMARK   67  A    between atoms: _166  and  _168
REMARK   68  A    between atoms: _168  and  _169
REMARK   69  A    between atoms: _168  and  _171
REMARK   70  A    between atoms: _174  and  _176
REMARK   71  A    between atoms: _176  and  _177
REMARK   72  A    between atoms: _176  and  _179
REMARK   73  A    between atoms: _179  and  _180
REMARK   74  A    between atoms: _185  and  _187
REMARK   75  A    between atoms: _187  and  _188
REMARK   76  A    between atoms: _187  and  _190
REMARK   77  A    between atoms: _190  and  _191
REMARK   78  A    between atoms: _194  and  _196
REMARK   79  A    between atoms: _196  and  _197
REMARK   80  A    between atoms: _196  and  _199
REMARK   81  A    between atoms: _199  and  _200
REMARK   82  A    between atoms: _203  and  _205
REMARK   83  A    between atoms: _205  and  _206
REMARK   84  A    between atoms: _208  and  _210
REMARK   85  A    between atoms: _210  and  _211
REMARK   86  A    between atoms: _210  and  _213
REMARK   87  A    between atoms: _213  and  _214
REMARK   88  A    between atoms: _214  and  _215
REMARK   89  A    between atoms: _215  and  _216
REMARK   90  A    between atoms: _225  and  _227
REMARK   91  A    between atoms: _227  and  _228
REMARK   92  A    between atoms: _227  and  _230
REMARK   93  A    between atoms: _230  and  _231
REMARK   94  A    between atoms: _231  and  _232
REMARK   95  A    between atoms: _232  and  _233
REMARK   96  A    between atoms: _242  and  _244
REMARK   97  A    between atoms: _244  and  _245
REMARK   98  A    between atoms: _244  and  _247
REMARK   99  A    between atoms: _247  and  _248
REMARK  100  A    between atoms: _251  and  _253
REMARK  101  A    between atoms: _253  and  _254
REMARK  102  A    between atoms: _253  and  _256
REMARK  103  A    between atoms: _256  and  _257
REMARK  104  A    between atoms: _260  and  _262
REMARK  105  A    between atoms: _262  and  _263
REMARK  106  A    between atoms: _262  and  _265
REMARK  107  A    between atoms: _265  and  _266
REMARK  108  A    between atoms: _269  and  _271
REMARK  109  A    between atoms: _271  and  _272
REMARK  110  A    between atoms: _271  and  _274
REMARK  111  A    between atoms: _274  and  _275
REMARK  112  A    between atoms: _278  and  _280
REMARK  113  A    between atoms: _280  and  _281
REMARK  114  A    between atoms: _283  and  _285
REMARK  115  A    between atoms: _285  and  _286
REMARK  116  A    between atoms: _289  and  _291
REMARK  117  A    between atoms: _291  and  _292
REMARK  118  A    between atoms: _291  and  _294
REMARK  119  A    between atoms: _294  and  _295
REMARK  120  A    between atoms: _298  and  _300
REMARK  121  A    between atoms: _300  and  _301
REMARK  122  A    between atoms: _300  and  _303
REMARK  123  A    between atoms: _303  and  _304
REMARK  124  A    between atoms: _307  and  _309
REMARK  125  A    between atoms: _309  and  _310
REMARK  126  A    between atoms: _309  and  _312
REMARK  127  A    between atoms: _312  and  _313
REMARK  128  A    between atoms: _316  and  _318
REMARK  129  A    between atoms: _318  and  _319
REMARK  130  A    between atoms: _318  and  _321
REMARK  131  A    between atoms: _324  and  _326
REMARK  132  A    between atoms: _326  and  _327
REMARK  133  A    between atoms: _326  and  _329
REMARK  134  A    between atoms: _329  and  _330
REMARK  135  A    between atoms: _330  and  _331
REMARK  136  A    between atoms: _331  and  _332
REMARK  137  A    between atoms: _332  and  _333
REMARK  138  A    between atoms: _337  and  _339
REMARK  139  A    between atoms: _339  and  _340
REMARK  140  A    between atoms: _339  and  _342
REMARK  141  A    between atoms: _342  and  _343
REMARK  142  A    between atoms: _343  and  _344
REMARK  143  A    between atoms: _346  and  _348
REMARK  144  A    between atoms: _348  and  _349
REMARK  145  A    between atoms: _348  and  _351
REMARK  146  A    between atoms: _351  and  _352
REMARK  147  A    between atoms: _355  and  _357
REMARK  148  A    between atoms: _357  and  _358
REMARK  149  A    between atoms: _360  and  _362
REMARK  150  A    between atoms: _362  and  _363
REMARK  151  A    between atoms: _365  and  _367
REMARK  152  A    between atoms: _367  and  _368
REMARK  153  A    between atoms: _367  and  _370
REMARK  154  A    between atoms: _370  and  _371
REMARK  155  A    between atoms: _374  and  _376
REMARK  156  A    between atoms: _376  and  _377
REMARK  157  A    between atoms: _379  and  _381
REMARK  158  A    between atoms: _381  and  _382
REMARK  159  A    between atoms: _384  and  _386
REMARK  160  A    between atoms: _386  and  _387
REMARK  161  A    between atoms: _386  and  _389
REMARK  162  A    between atoms: _389  and  _390
REMARK  163  A    between atoms: _393  and  _395
REMARK  164  A    between atoms: _395  and  _396
REMARK  165  A    between atoms: _395  and  _398
REMARK  166  A    between atoms: _401  and  _403
REMARK  167  A    between atoms: _403  and  _404
REMARK  168  A    between atoms: _403  and  _406
REMARK  169  A    between atoms: _406  and  _407
REMARK  170  A    between atoms: _410  and  _412
REMARK  171  A    between atoms: _412  and  _413
REMARK  172  A    between atoms: _412  and  _415
REMARK  173  A    between atoms: _415  and  _416
REMARK  174  A    between atoms: _420  and  _421
REMARK  175  A    between atoms: _426  and  _428
REMARK  176  A    between atoms: _428  and  _429
REMARK  177  A    between atoms: _428  and  _431
REMARK  178  A    between atoms: _434  and  _436
REMARK  179  A    between atoms: _436  and  _437
REMARK  180  A    between atoms: _436  and  _439
REMARK  181  A    between atoms: _439  and  _440
REMARK  182  A    between atoms: _445  and  _447
REMARK  183  A    between atoms: _447  and  _448
REMARK  184  A    between atoms: _447  and  _450
REMARK  185  A    between atoms: _450  and  _451
REMARK  186  A    between atoms: _454  and  _456
REMARK  187  A    between atoms: _456  and  _457
REMARK  188  A    between atoms: _456  and  _459
REMARK  189  A    between atoms: _459  and  _460
REMARK  190  A    between atoms: _463  and  _465
REMARK  191  A    between atoms: _465  and  _466
REMARK  192  A    between atoms: _468  and  _470
REMARK  193  A    between atoms: _470  and  _471
REMARK  194  A    between atoms: _470  and  _473
REMARK  195  A    between atoms: _473  and  _474
REMARK  196  A    between atoms: _474  and  _475
REMARK  197  A    between atoms: _475  and  _476
REMARK  198  A    between atoms: _485  and  _487
REMARK  199  A    between atoms: _487  and  _488
REMARK  200  A    between atoms: _487  and  _490
REMARK  201  A    between atoms: _490  and  _491
REMARK                            x       y       z     vdW  Elec       q    Type
REMARK                         _______ _______ _______ _____ _____    ______ ____
ROOT
ATOM      1  O   HOH     1      12.356  21.285  10.724  0.00  0.00    +0.000 OA
ENDROOT
TORSDOF 0
REMARK  Name = ../refined-set-2016/2qi7/2qi7_pocket.pdb
REMARK  201 active torsions:
REMARK  status: ('A' for Active; 'I' for Inactive)
REMARK    1  A    between atoms: _1  and  _3
REMARK    2  A    between atoms: _3  and  _4
REMARK    3  A    between atoms: _3  and  _6
REMARK    4  A    between atoms: _6  and  _7
REMARK    5  A    between atoms: _7  and  _8
REMARK    6  A    between atoms: _8  and  _9
REMARK    7  A    between atoms: _18  and  _20
REMARK    8  A    between atoms: _20  and  _21
REMARK    9  A    between atoms: _20  and  _23
REMARK   10  A    between atoms: _23  and  _24
REMARK   11  A    between atoms: _27  and  _29
REMARK   12  A    between atoms: _29  and  _30
REMARK   13  A    between atoms: _29  and  _32
REMARK   14  A    between atoms: _32  and  _33
REMARK   15  A    between atoms: _36  and  _38
REMARK   16  A    between atoms: _38  and  _39
REMARK   17  A    between atoms: _38  and  _41
REMARK   18  A    between atoms: _41  and  _42
REMARK   19  A    between atoms: _45  and  _47
REMARK   20  A    between atoms: _47  and  _48
REMARK   21  A    between atoms: _47  and  _50
REMARK   22  A    between atoms: _50  and  _51
REMARK   23  A    between atoms: _54  and  _56
REMARK   24  A    between atoms: _56  and  _57
REMARK   25  A    between atoms: _59  and  _61
REMARK   26  A    between atoms: _61  and  _62
REMARK   27  A    between atoms: _65  and  _67
REMARK   28  A    between atoms: _67  and  _68
REMARK   29  A    between atoms: _67  and  _70
REMARK   30  A    between atoms: _70  and  _71
REMARK   31  A    between atoms: _74  and  _76
REMARK   32  A    between atoms: _76  and  _77
REMARK   33  A    between atoms: _76  and  _79
REMARK   34  A    between atoms: _79  and  _80
REMARK   35  A    between atoms: _83  and  _85
REMARK   36  A    between atoms: _85  and  _86
REMARK   37  A    between atoms: _85  and  _88
REMARK   38  A    between atoms: _88  and  _89
REMARK   39  A    between atoms: _92  and  _94
REMARK   40  A    between atoms: _94  and  _95
REMARK   41  A    between atoms: _94  and  _97
REMARK   42  A    between atoms: _100  and  _102
REMARK   43  A    between atoms: _102  and  _103
REMARK   44  A    between atoms: _102  and  _105
REMARK   45  A    between atoms: _105  and  _106
REMARK   46  A    between atoms: _109  and  _111
REMARK   47  A    between atoms: _111  and  _112
REMARK   48  A    between atoms: _114  and  _116
REMARK   49  A    between atoms: _116  and  _117
REMARK   50  A    between atoms: _119  and  _121
REMARK   51  A    between atoms: _121  and  _122
REMARK   52  A    between atoms: _121  and  _124
REMARK   53  A    between atoms: _124  and  _125
REMARK   54  A    between atoms: _128  and  _130
REMARK   55  A    between atoms: _130  and  _131
REMARK   56  A    between atoms: _133  and  _135
REMARK   57  A    between atoms: _135  and  _136
REMARK   58  A    between atoms: _138  and  _140
REMARK   59  A    between atoms: _140  and  _141
REMARK   60  A    between atoms: _140  and  _143
REMARK   61  A    between atoms: _143  and  _144
REMARK   62  A    between atoms: _150  and  _152
REMARK   63  A    between atoms: _152  and  _153
REMARK   64  A    between atoms: _152  and  _155
REMARK   65  A    between atoms: _155  and  _156
REMARK   66  A    between atoms: _160  and  _161
REMARK   67  A    between atoms: _166  and  _168
REMARK   68  A    between atoms: _168  and  _169
REMARK   69  A    between atoms: _168  and  _171
REMARK   70  A    between atoms: _174  and  _176
REMARK   71  A    between atoms: _176  and  _177
REMARK   72  A    between atoms: _176  and  _179
REMARK   73  A    between atoms: _179  and  _180
REMARK   74  A    between atoms: _185  and  _187
REMARK   75  A    between atoms: _187  and  _188
REMARK   76  A    between atoms: _187  and  _190
REMARK   77  A    between atoms: _190  and  _191
REMARK   78  A    between atoms: _194  and  _196
REMARK   79  A    between atoms: _196  and  _197
REMARK   80  A    between atoms: _196  and  _199
REMARK   81  A    between atoms: _199  and  _200
REMARK   82  A    between atoms: _203  and  _205
REMARK   83  A    between atoms: _205  and  _206
REMARK   84  A    between atoms: _208  and  _210
REMARK   85  A    between atoms: _210  and  _211
REMARK   86  A    between atoms: _210  and  _213
REMARK   87  A    between atoms: _213  and  _214
REMARK   88  A    between atoms: _214  and  _215
REMARK   89  A    between atoms: _215  and  _216
REMARK   90  A    between atoms: _225  and  _227
REMARK   91  A    between atoms: _227  and  _228
REMARK   92  A    between atoms: _227  and  _230
REMARK   93  A    between atoms: _230  and  _231
REMARK   94  A    between atoms: _231  and  _232
REMARK   95  A    between atoms: _232  and  _233
REMARK   96  A    between atoms: _242  and  _244
REMARK   97  A    between atoms: _244  and  _245
REMARK   98  A    between atoms: _244  and  _247
REMARK   99  A    between atoms: _247  and  _248
REMARK  100  A    between atoms: _251  and  _253
REMARK  101  A    between atoms: _253  and  _254
REMARK  102  A    between atoms: _253  and  _256
REMARK  103  A    between atoms: _256  and  _257
REMARK  104  A    between atoms: _260  and  _262
REMARK  105  A    between atoms: _262  and  _263
REMARK  106  A    between atoms: _262  and  _265
REMARK  107  A    between atoms: _265  and  _266
REMARK  108  A    between atoms: _269  and  _271
REMARK  109  A    between atoms: _271  and  _272
REMARK  110  A    between atoms: _271  and  _274
REMARK  111  A    between atoms: _274  and  _275
REMARK  112  A    between atoms: _278  and  _280
REMARK  113  A    between atoms: _280  and  _281
REMARK  114  A    between atoms: _283  and  _285
REMARK  115  A    between atoms: _285  and  _286
REMARK  116  A    between atoms: _289  and  _291
REMARK  117  A    between atoms: _291  and  _292
REMARK  118  A    between atoms: _291  and  _294
REMARK  119  A    between atoms: _294  and  _295
REMARK  120  A    between atoms: _298  and  _300
REMARK  121  A    between atoms: _300  and  _301
REMARK  122  A    between atoms: _300  and  _303
REMARK  123  A    between atoms: _303  and  _304
REMARK  124  A    between atoms: _307  and  _309
REMARK  125  A    between atoms: _309  and  _310
REMARK  126  A    between atoms: _309  and  _312
REMARK  127  A    between atoms: _312  and  _313
REMARK  128  A    between atoms: _316  and  _318
REMARK  129  A    between atoms: _318  and  _319
REMARK  130  A    between atoms: _318  and  _321
REMARK  131  A    between atoms: _324  and  _326
REMARK  132  A    between atoms: _326  and  _327
REMARK  133  A    between atoms: _326  and  _329
REMARK  134  A    between atoms: _329  and  _330
REMARK  135  A    between atoms: _330  and  _331
REMARK  136  A    between atoms: _331  and  _332
REMARK  137  A    between atoms: _332  and  _333
REMARK  138  A    between atoms: _337  and  _339
REMARK  139  A    between atoms: _339  and  _340
REMARK  140  A    between atoms: _339  and  _342
REMARK  141  A    between atoms: _342  and  _343
REMARK  142  A    between atoms: _343  and  _344
REMARK  143  A    between atoms: _346  and  _348
REMARK  144  A    between atoms: _348  and  _349
REMARK  145  A    between atoms: _348  and  _351
REMARK  146  A    between atoms: _351  and  _352
REMARK  147  A    between atoms: _355  and  _357
REMARK  148  A    between atoms: _357  and  _358
REMARK  149  A    between atoms: _360  and  _362
REMARK  150  A    between atoms: _362  and  _363
REMARK  151  A    between atoms: _365  and  _367
REMARK  152  A    between atoms: _367  and  _368
REMARK  153  A    between atoms: _367  and  _370
REMARK  154  A    between atoms: _370  and  _371
REMARK  155  A    between atoms: _374  and  _376
REMARK  156  A    between atoms: _376  and  _377
REMARK  157  A    between atoms: _379  and  _381
REMARK  158  A    between atoms: _381  and  _382
REMARK  159  A    between atoms: _384  and  _386
REMARK  160  A    between atoms: _386  and  _387
REMARK  161  A    between atoms: _386  and  _389
REMARK  162  A    between atoms: _389  and  _390
REMARK  163  A    between atoms: _393  and  _395
REMARK  164  A    between atoms: _395  and  _396
REMARK  165  A    between atoms: _395  and  _398
REMARK  166  A    between atoms: _401  and  _403
REMARK  167  A    between atoms: _403  and  _404
REMARK  168  A    between atoms: _403  and  _406
REMARK  169  A    between atoms: _406  and  _407
REMARK  170  A    between atoms: _410  and  _412
REMARK  171  A    between atoms: _412  and  _413
REMARK  172  A    between atoms: _412  and  _415
REMARK  173  A    between atoms: _415  and  _416
REMARK  174  A    between atoms: _420  and  _421
REMARK  175  A    between atoms: _426  and  _428
REMARK  176  A    between atoms: _428  and  _429
REMARK  177  A    between atoms: _428  and  _431
REMARK  178  A    between atoms: _434  and  _436
REMARK  179  A    between atoms: _436  and  _437
REMARK  180  A    between atoms: _436  and  _439
REMARK  181  A    between atoms: _439  and  _440
REMARK  182  A    between atoms: _445  and  _447
REMARK  183  A    between atoms: _447  and  _448
REMARK  184  A    between atoms: _447  and  _450
REMARK  185  A    between atoms: _450  and  _451
REMARK  186  A    between atoms: _454  and  _456
REMARK  187  A    between atoms: _456  and  _457
REMARK  188  A    between atoms: _456  and  _459
REMARK  189  A    between atoms: _459  and  _460
REMARK  190  A    between atoms: _463  and  _465
REMARK  191  A    between atoms: _465  and  _466
REMARK  192  A    between atoms: _468  and  _470
REMARK  193  A    between atoms: _470  and  _471
REMARK  194  A    between atoms: _470  and  _473
REMARK  195  A    between atoms: _473  and  _474
REMARK  196  A    between atoms: _474  and  _475
REMARK  197  A    between atoms: _475  and  _476
REMARK  198  A    between atoms: _485  and  _487
REMARK  199  A    between atoms: _487  and  _488
REMARK  200  A    between atoms: _487  and  _490
REMARK  201  A    between atoms: _490  and  _491
REMARK                            x       y       z     vdW  Elec       q    Type
REMARK                         _______ _______ _______ _____ _____    ______ ____
ROOT
ATOM      1  O   HOH     1       9.656  39.171  22.101  0.00  0.00    +0.000 OA
ENDROOT
TORSDOF 0
REMARK  Name = ../refined-set-2016/2qi7/2qi7_pocket.pdb
REMARK  201 active torsions:
REMARK  status: ('A' for Active; 'I' for Inactive)
REMARK    1  A    between atoms: _1  and  _3
REMARK    2  A    between atoms: _3  and  _4
REMARK    3  A    between atoms: _3  and  _6
REMARK    4  A    between atoms: _6  and  _7
REMARK    5  A    between atoms: _7  and  _8
REMARK    6  A    between atoms: _8  and  _9
REMARK    7  A    between atoms: _18  and  _20
REMARK    8  A    between atoms: _20  and  _21
REMARK    9  A    between atoms: _20  and  _23
REMARK   10  A    between atoms: _23  and  _24
REMARK   11  A    between atoms: _27  and  _29
REMARK   12  A    between atoms: _29  and  _30
REMARK   13  A    between atoms: _29  and  _32
REMARK   14  A    between atoms: _32  and  _33
REMARK   15  A    between atoms: _36  and  _38
REMARK   16  A    between atoms: _38  and  _39
REMARK   17  A    between atoms: _38  and  _41
REMARK   18  A    between atoms: _41  and  _42
REMARK   19  A    between atoms: _45  and  _47
REMARK   20  A    between atoms: _47  and  _48
REMARK   21  A    between atoms: _47  and  _50
REMARK   22  A    between atoms: _50  and  _51
REMARK   23  A    between atoms: _54  and  _56
REMARK   24  A    between atoms: _56  and  _57
REMARK   25  A    between atoms: _59  and  _61
REMARK   26  A    between atoms: _61  and  _62
REMARK   27  A    between atoms: _65  and  _67
REMARK   28  A    between atoms: _67  and  _68
REMARK   29  A    between atoms: _67  and  _70
REMARK   30  A    between atoms: _70  and  _71
REMARK   31  A    between atoms: _74  and  _76
REMARK   32  A    between atoms: _76  and  _77
REMARK   33  A    between atoms: _76  and  _79
REMARK   34  A    between atoms: _79  and  _80
REMARK   35  A    between atoms: _83  and  _85
REMARK   36  A    between atoms: _85  and  _86
REMARK   37  A    between atoms: _85  and  _88
REMARK   38  A    between atoms: _88  and  _89
REMARK   39  A    between atoms: _92  and  _94
REMARK   40  A    between atoms: _94  and  _95
REMARK   41  A    between atoms: _94  and  _97
REMARK   42  A    between atoms: _100  and  _102
REMARK   43  A    between atoms: _102  and  _103
REMARK   44  A    between atoms: _102  and  _105
REMARK   45  A    between atoms: _105  and  _106
REMARK   46  A    between atoms: _109  and  _111
REMARK   47  A    between atoms: _111  and  _112
REMARK   48  A    between atoms: _114  and  _116
REMARK   49  A    between atoms: _116  and  _117
REMARK   50  A    between atoms: _119  and  _121
REMARK   51  A    between atoms: _121  and  _122
REMARK   52  A    between atoms: _121  and  _124
REMARK   53  A    between atoms: _124  and  _125
REMARK   54  A    between atoms: _128  and  _130
REMARK   55  A    between atoms: _130  and  _131
REMARK   56  A    between atoms: _133  and  _135
REMARK   57  A    between atoms: _135  and  _136
REMARK   58  A    between atoms: _138  and  _140
REMARK   59  A    between atoms: _140  and  _141
REMARK   60  A    between atoms: _140  and  _143
REMARK   61  A    between atoms: _143  and  _144
REMARK   62  A    between atoms: _150  and  _152
REMARK   63  A    between atoms: _152  and  _153
REMARK   64  A    between atoms: _152  and  _155
REMARK   65  A    between atoms: _155  and  _156
REMARK   66  A    between atoms: _160  and  _161
REMARK   67  A    between atoms: _166  and  _168
REMARK   68  A    between atoms: _168  and  _169
REMARK   69  A    between atoms: _168  and  _171
REMARK   70  A    between atoms: _174  and  _176
REMARK   71  A    between atoms: _176  and  _177
REMARK   72  A    between atoms: _176  and  _179
REMARK   73  A    between atoms: _179  and  _180
REMARK   74  A    between atoms: _185  and  _187
REMARK   75  A    between atoms: _187  and  _188
REMARK   76  A    between atoms: _187  and  _190
REMARK   77  A    between atoms: _190  and  _191
REMARK   78  A    between atoms: _194  and  _196
REMARK   79  A    between atoms: _196  and  _197
REMARK   80  A    between atoms: _196  and  _199
REMARK   81  A    between atoms: _199  and  _200
REMARK   82  A    between atoms: _203  and  _205
REMARK   83  A    between atoms: _205  and  _206
REMARK   84  A    between atoms: _208  and  _210
REMARK   85  A    between atoms: _210  and  _211
REMARK   86  A    between atoms: _210  and  _213
REMARK   87  A    between atoms: _213  and  _214
REMARK   88  A    between atoms: _214  and  _215
REMARK   89  A    between atoms: _215  and  _216
REMARK   90  A    between atoms: _225  and  _227
REMARK   91  A    between atoms: _227  and  _228
REMARK   92  A    between atoms: _227  and  _230
REMARK   93  A    between atoms: _230  and  _231
REMARK   94  A    between atoms: _231  and  _232
REMARK   95  A    between atoms: _232  and  _233
REMARK   96  A    between atoms: _242  and  _244
REMARK   97  A    between atoms: _244  and  _245
REMARK   98  A    between atoms: _244  and  _247
REMARK   99  A    between atoms: _247  and  _248
REMARK  100  A    between atoms: _251  and  _253
REMARK  101  A    between atoms: _253  and  _254
REMARK  102  A    between atoms: _253  and  _256
REMARK  103  A    between atoms: _256  and  _257
REMARK  104  A    between atoms: _260  and  _262
REMARK  105  A    between atoms: _262  and  _263
REMARK  106  A    between atoms: _262  and  _265
REMARK  107  A    between atoms: _265  and  _266
REMARK  108  A    between atoms: _269  and  _271
REMARK  109  A    between atoms: _271  and  _272
REMARK  110  A    between atoms: _271  and  _274
REMARK  111  A    between atoms: _274  and  _275
REMARK  112  A    between atoms: _278  and  _280
REMARK  113  A    between atoms: _280  and  _281
REMARK  114  A    between atoms: _283  and  _285
REMARK  115  A    between atoms: _285  and  _286
REMARK  116  A    between atoms: _289  and  _291
REMARK  117  A    between atoms: _291  and  _292
REMARK  118  A    between atoms: _291  and  _294
REMARK  119  A    between atoms: _294  and  _295
REMARK  120  A    between atoms: _298  and  _300
REMARK  121  A    between atoms: _300  and  _301
REMARK  122  A    between atoms: _300  and  _303
REMARK  123  A    between atoms: _303  and  _304
REMARK  124  A    between atoms: _307  and  _309
REMARK  125  A    between atoms: _309  and  _310
REMARK  126  A    between atoms: _309  and  _312
REMARK  127  A    between atoms: _312  and  _313
REMARK  128  A    between atoms: _316  and  _318
REMARK  129  A    between atoms: _318  and  _319
REMARK  130  A    between atoms: _318  and  _321
REMARK  131  A    between atoms: _324  and  _326
REMARK  132  A    between atoms: _326  and  _327
REMARK  133  A    between atoms: _326  and  _329
REMARK  134  A    between atoms: _329  and  _330
REMARK  135  A    between atoms: _330  and  _331
REMARK  136  A    between atoms: _331  and  _332
REMARK  137  A    between atoms: _332  and  _333
REMARK  138  A    between atoms: _337  and  _339
REMARK  139  A    between atoms: _339  and  _340
REMARK  140  A    between atoms: _339  and  _342
REMARK  141  A    between atoms: _342  and  _343
REMARK  142  A    between atoms: _343  and  _344
REMARK  143  A    between atoms: _346  and  _348
REMARK  144  A    between atoms: _348  and  _349
REMARK  145  A    between atoms: _348  and  _351
REMARK  146  A    between atoms: _351  and  _352
REMARK  147  A    between atoms: _355  and  _357
REMARK  148  A    between atoms: _357  and  _358
REMARK  149  A    between atoms: _360  and  _362
REMARK  150  A    between atoms: _362  and  _363
REMARK  151  A    between atoms: _365  and  _367
REMARK  152  A    between atoms: _367  and  _368
REMARK  153  A    between atoms: _367  and  _370
REMARK  154  A    between atoms: _370  and  _371
REMARK  155  A    between atoms: _374  and  _376
REMARK  156  A    between atoms: _376  and  _377
REMARK  157  A    between atoms: _379  and  _381
REMARK  158  A    between atoms: _381  and  _382
REMARK  159  A    between atoms: _384  and  _386
REMARK  160  A    between atoms: _386  and  _387
REMARK  161  A    between atoms: _386  and  _389
REMARK  162  A    between atoms: _389  and  _390
REMARK  163  A    between atoms: _393  and  _395
REMARK  164  A    between atoms: _395  and  _396
REMARK  165  A    between atoms: _395  and  _398
REMARK  166  A    between atoms: _401  and  _403
REMARK  167  A    between atoms: _403  and  _404
REMARK  168  A    between atoms: _403  and  _406
REMARK  169  A    between atoms: _406  and  _407
REMARK  170  A    between atoms: _410  and  _412
REMARK  171  A    between atoms: _412  and  _413
REMARK  172  A    between atoms: _412  and  _415
REMARK  173  A    between atoms: _415  and  _416
REMARK  174  A    between atoms: _420  and  _421
REMARK  175  A    between atoms: _426  and  _428
REMARK  176  A    between atoms: _428  and  _429
REMARK  177  A    between atoms: _428  and  _431
REMARK  178  A    between atoms: _434  and  _436
REMARK  179  A    between atoms: _436  and  _437
REMARK  180  A    between atoms: _436  and  _439
REMARK  181  A    between atoms: _439  and  _440
REMARK  182  A    between atoms: _445  and  _447
REMARK  183  A    between atoms: _447  and  _448
REMARK  184  A    between atoms: _447  and  _450
REMARK  185  A    between atoms: _450  and  _451
REMARK  186  A    between atoms: _454  and  _456
REMARK  187  A    between atoms: _456  and  _457
REMARK  188  A    between atoms: _456  and  _459
REMARK  189  A    between atoms: _459  and  _460
REMARK  190  A    between atoms: _463  and  _465
REMARK  191  A    between atoms: _465  and  _466
REMARK  192  A    between atoms: _468  and  _470
REMARK  193  A    between atoms: _470  and  _471
REMARK  194  A    between atoms: _470  and  _473
REMARK  195  A    between atoms: _473  and  _474
REMARK  196  A    between atoms: _474  and  _475
REMARK  197  A    between atoms: _475  and  _476
REMARK  198  A    between atoms: _485  and  _487
REMARK  199  A    between atoms: _487  and  _488
REMARK  200  A    between atoms: _487  and  _490
REMARK  201  A    between atoms: _490  and  _491
REMARK                            x       y       z     vdW  Elec       q    Type
REMARK                         _______ _______ _______ _____ _____    ______ ____
ROOT
ATOM      1  O   HOH     1      20.987  16.211  11.488  0.00  0.00    +0.000 OA
ENDROOT
TORSDOF 0
REMARK  Name = ../refined-set-2016/2qi7/2qi7_pocket.pdb
REMARK  201 active torsions:
REMARK  status: ('A' for Active; 'I' for Inactive)
REMARK    1  A    between atoms: _1  and  _3
REMARK    2  A    between atoms: _3  and  _4
REMARK    3  A    between atoms: _3  and  _6
REMARK    4  A    between atoms: _6  and  _7
REMARK    5  A    between atoms: _7  and  _8
REMARK    6  A    between atoms: _8  and  _9
REMARK    7  A    between atoms: _18  and  _20
REMARK    8  A    between atoms: _20  and  _21
REMARK    9  A    between atoms: _20  and  _23
REMARK   10  A    between atoms: _23  and  _24
REMARK   11  A    between atoms: _27  and  _29
REMARK   12  A    between atoms: _29  and  _30
REMARK   13  A    between atoms: _29  and  _32
REMARK   14  A    between atoms: _32  and  _33
REMARK   15  A    between atoms: _36  and  _38
REMARK   16  A    between atoms: _38  and  _39
REMARK   17  A    between atoms: _38  and  _41
REMARK   18  A    between atoms: _41  and  _42
REMARK   19  A    between atoms: _45  and  _47
REMARK   20  A    between atoms: _47  and  _48
REMARK   21  A    between atoms: _47  and  _50
REMARK   22  A    between atoms: _50  and  _51
REMARK   23  A    between atoms: _54  and  _56
REMARK   24  A    between atoms: _56  and  _57
REMARK   25  A    between atoms: _59  and  _61
REMARK   26  A    between atoms: _61  and  _62
REMARK   27  A    between atoms: _65  and  _67
REMARK   28  A    between atoms: _67  and  _68
REMARK   29  A    between atoms: _67  and  _70
REMARK   30  A    between atoms: _70  and  _71
REMARK   31  A    between atoms: _74  and  _76
REMARK   32  A    between atoms: _76  and  _77
REMARK   33  A    between atoms: _76  and  _79
REMARK   34  A    between atoms: _79  and  _80
REMARK   35  A    between atoms: _83  and  _85
REMARK   36  A    between atoms: _85  and  _86
REMARK   37  A    between atoms: _85  and  _88
REMARK   38  A    between atoms: _88  and  _89
REMARK   39  A    between atoms: _92  and  _94
REMARK   40  A    between atoms: _94  and  _95
REMARK   41  A    between atoms: _94  and  _97
REMARK   42  A    between atoms: _100  and  _102
REMARK   43  A    between atoms: _102  and  _103
REMARK   44  A    between atoms: _102  and  _105
REMARK   45  A    between atoms: _105  and  _106
REMARK   46  A    between atoms: _109  and  _111
REMARK   47  A    between atoms: _111  and  _112
REMARK   48  A    between atoms: _114  and  _116
REMARK   49  A    between atoms: _116  and  _117
REMARK   50  A    between atoms: _119  and  _121
REMARK   51  A    between atoms: _121  and  _122
REMARK   52  A    between atoms: _121  and  _124
REMARK   53  A    between atoms: _124  and  _125
REMARK   54  A    between atoms: _128  and  _130
REMARK   55  A    between atoms: _130  and  _131
REMARK   56  A    between atoms: _133  and  _135
REMARK   57  A    between atoms: _135  and  _136
REMARK   58  A    between atoms: _138  and  _140
REMARK   59  A    between atoms: _140  and  _141
REMARK   60  A    between atoms: _140  and  _143
REMARK   61  A    between atoms: _143  and  _144
REMARK   62  A    between atoms: _150  and  _152
REMARK   63  A    between atoms: _152  and  _153
REMARK   64  A    between atoms: _152  and  _155
REMARK   65  A    between atoms: _155  and  _156
REMARK   66  A    between atoms: _160  and  _161
REMARK   67  A    between atoms: _166  and  _168
REMARK   68  A    between atoms: _168  and  _169
REMARK   69  A    between atoms: _168  and  _171
REMARK   70  A    between atoms: _174  and  _176
REMARK   71  A    between atoms: _176  and  _177
REMARK   72  A    between atoms: _176  and  _179
REMARK   73  A    between atoms: _179  and  _180
REMARK   74  A    between atoms: _185  and  _187
REMARK   75  A    between atoms: _187  and  _188
REMARK   76  A    between atoms: _187  and  _190
REMARK   77  A    between atoms: _190  and  _191
REMARK   78  A    between atoms: _194  and  _196
REMARK   79  A    between atoms: _196  and  _197
REMARK   80  A    between atoms: _196  and  _199
REMARK   81  A    between atoms: _199  and  _200
REMARK   82  A    between atoms: _203  and  _205
REMARK   83  A    between atoms: _205  and  _206
REMARK   84  A    between atoms: _208  and  _210
REMARK   85  A    between atoms: _210  and  _211
REMARK   86  A    between atoms: _210  and  _213
REMARK   87  A    between atoms: _213  and  _214
REMARK   88  A    between atoms: _214  and  _215
REMARK   89  A    between atoms: _215  and  _216
REMARK   90  A    between atoms: _225  and  _227
REMARK   91  A    between atoms: _227  and  _228
REMARK   92  A    between atoms: _227  and  _230
REMARK   93  A    between atoms: _230  and  _231
REMARK   94  A    between atoms: _231  and  _232
REMARK   95  A    between atoms: _232  and  _233
REMARK   96  A    between atoms: _242  and  _244
REMARK   97  A    between atoms: _244  and  _245
REMARK   98  A    between atoms: _244  and  _247
REMARK   99  A    between atoms: _247  and  _248
REMARK  100  A    between atoms: _251  and  _253
REMARK  101  A    between atoms: _253  and  _254
REMARK  102  A    between atoms: _253  and  _256
REMARK  103  A    between atoms: _256  and  _257
REMARK  104  A    between atoms: _260  and  _262
REMARK  105  A    between atoms: _262  and  _263
REMARK  106  A    between atoms: _262  and  _265
REMARK  107  A    between atoms: _265  and  _266
REMARK  108  A    between atoms: _269  and  _271
REMARK  109  A    between atoms: _271  and  _272
REMARK  110  A    between atoms: _271  and  _274
REMARK  111  A    between atoms: _274  and  _275
REMARK  112  A    between atoms: _278  and  _280
REMARK  113  A    between atoms: _280  and  _281
REMARK  114  A    between atoms: _283  and  _285
REMARK  115  A    between atoms: _285  and  _286
REMARK  116  A    between atoms: _289  and  _291
REMARK  117  A    between atoms: _291  and  _292
REMARK  118  A    between atoms: _291  and  _294
REMARK  119  A    between atoms: _294  and  _295
REMARK  120  A    between atoms: _298  and  _300
REMARK  121  A    between atoms: _300  and  _301
REMARK  122  A    between atoms: _300  and  _303
REMARK  123  A    between atoms: _303  and  _304
REMARK  124  A    between atoms: _307  and  _309
REMARK  125  A    between atoms: _309  and  _310
REMARK  126  A    between atoms: _309  and  _312
REMARK  127  A    between atoms: _312  and  _313
REMARK  128  A    between atoms: _316  and  _318
REMARK  129  A    between atoms: _318  and  _319
REMARK  130  A    between atoms: _318  and  _321
REMARK  131  A    between atoms: _324  and  _326
REMARK  132  A    between atoms: _326  and  _327
REMARK  133  A    between atoms: _326  and  _329
REMARK  134  A    between atoms: _329  and  _330
REMARK  135  A    between atoms: _330  and  _331
REMARK  136  A    between atoms: _331  and  _332
REMARK  137  A    between atoms: _332  and  _333
REMARK  138  A    between atoms: _337  and  _339
REMARK  139  A    between atoms: _339  and  _340
REMARK  140  A    between atoms: _339  and  _342
REMARK  141  A    between atoms: _342  and  _343
REMARK  142  A    between atoms: _343  and  _344
REMARK  143  A    between atoms: _346  and  _348
REMARK  144  A    between atoms: _348  and  _349
REMARK  145  A    between atoms: _348  and  _351
REMARK  146  A    between atoms: _351  and  _352
REMARK  147  A    between atoms: _355  and  _357
REMARK  148  A    between atoms: _357  and  _358
REMARK  149  A    between atoms: _360  and  _362
REMARK  150  A    between atoms: _362  and  _363
REMARK  151  A    between atoms: _365  and  _367
REMARK  152  A    between atoms: _367  and  _368
REMARK  153  A    between atoms: _367  and  _370
REMARK  154  A    between atoms: _370  and  _371
REMARK  155  A    between atoms: _374  and  _376
REMARK  156  A    between atoms: _376  and  _377
REMARK  157  A    between atoms: _379  and  _381
REMARK  158  A    between atoms: _381  and  _382
REMARK  159  A    between atoms: _384  and  _386
REMARK  160  A    between atoms: _386  and  _387
REMARK  161  A    between atoms: _386  and  _389
REMARK  162  A    between atoms: _389  and  _390
REMARK  163  A    between atoms: _393  and  _395
REMARK  164  A    between atoms: _395  and  _396
REMARK  165  A    between atoms: _395  and  _398
REMARK  166  A    between atoms: _401  and  _403
REMARK  167  A    between atoms: _403  and  _404
REMARK  168  A    between atoms: _403  and  _406
REMARK  169  A    between atoms: _406  and  _407
REMARK  170  A    between atoms: _410  and  _412
REMARK  171  A    between atoms: _412  and  _413
REMARK  172  A    between atoms: _412  and  _415
REMARK  173  A    between atoms: _415  and  _416
REMARK  174  A    between atoms: _420  and  _421
REMARK  175  A    between atoms: _426  and  _428
REMARK  176  A    between atoms: _428  and  _429
REMARK  177  A    between atoms: _428  and  _431
REMARK  178  A    between atoms: _434  and  _436
REMARK  179  A    between atoms: _436  and  _437
REMARK  180  A    between atoms: _436  and  _439
REMARK  181  A    between atoms: _439  and  _440
REMARK  182  A    between atoms: _445  and  _447
REMARK  183  A    between atoms: _447  and  _448
REMARK  184  A    between atoms: _447  and  _450
REMARK  185  A    between atoms: _450  and  _451
REMARK  186  A    between atoms: _454  and  _456
REMARK  187  A    between atoms: _456  and  _457
REMARK  188  A    between atoms: _456  and  _459
REMARK  189  A    between atoms: _459  and  _460
REMARK  190  A    between atoms: _463  and  _465
REMARK  191  A    between atoms: _465  and  _466
REMARK  192  A    between atoms: _468  and  _470
REMARK  193  A    between atoms: _470  and  _471
REMARK  194  A    between atoms: _470  and  _473
REMARK  195  A    between atoms: _473  and  _474
REMARK  196  A    between atoms: _474  and  _475
REMARK  197  A    between atoms: _475  and  _476
REMARK  198  A    between atoms: _485  and  _487
REMARK  199  A    between atoms: _487  and  _488
REMARK  200  A    between atoms: _487  and  _490
REMARK  201  A    between atoms: _490  and  _491
REMARK                            x       y       z     vdW  Elec       q    Type
REMARK                         _______ _______ _______ _____ _____    ______ ____
ROOT
ATOM      1  O   HOH     1      19.267  37.083  18.989  0.00  0.00    +0.000 OA
ENDROOT
TORSDOF 0
REMARK  Name = ../refined-set-2016/2qi7/2qi7_pocket.pdb
REMARK  201 active torsions:
REMARK  status: ('A' for Active; 'I' for Inactive)
REMARK    1  A    between atoms: _1  and  _3
REMARK    2  A    between atoms: _3  and  _4
REMARK    3  A    between atoms: _3  and  _6
REMARK    4  A    between atoms: _6  and  _7
REMARK    5  A    between atoms: _7  and  _8
REMARK    6  A    between atoms: _8  and  _9
REMARK    7  A    between atoms: _18  and  _20
REMARK    8  A    between atoms: _20  and  _21
REMARK    9  A    between atoms: _20  and  _23
REMARK   10  A    between atoms: _23  and  _24
REMARK   11  A    between atoms: _27  and  _29
REMARK   12  A    between atoms: _29  and  _30
REMARK   13  A    between atoms: _29  and  _32
REMARK   14  A    between atoms: _32  and  _33
REMARK   15  A    between atoms: _36  and  _38
REMARK   16  A    between atoms: _38  and  _39
REMARK   17  A    between atoms: _38  and  _41
REMARK   18  A    between atoms: _41  and  _42
REMARK   19  A    between atoms: _45  and  _47
REMARK   20  A    between atoms: _47  and  _48
REMARK   21  A    between atoms: _47  and  _50
REMARK   22  A    between atoms: _50  and  _51
REMARK   23  A    between atoms: _54  and  _56
REMARK   24  A    between atoms: _56  and  _57
REMARK   25  A    between atoms: _59  and  _61
REMARK   26  A    between atoms: _61  and  _62
REMARK   27  A    between atoms: _65  and  _67
REMARK   28  A    between atoms: _67  and  _68
REMARK   29  A    between atoms: _67  and  _70
REMARK   30  A    between atoms: _70  and  _71
REMARK   31  A    between atoms: _74  and  _76
REMARK   32  A    between atoms: _76  and  _77
REMARK   33  A    between atoms: _76  and  _79
REMARK   34  A    between atoms: _79  and  _80
REMARK   35  A    between atoms: _83  and  _85
REMARK   36  A    between atoms: _85  and  _86
REMARK   37  A    between atoms: _85  and  _88
REMARK   38  A    between atoms: _88  and  _89
REMARK   39  A    between atoms: _92  and  _94
REMARK   40  A    between atoms: _94  and  _95
REMARK   41  A    between atoms: _94  and  _97
REMARK   42  A    between atoms: _100  and  _102
REMARK   43  A    between atoms: _102  and  _103
REMARK   44  A    between atoms: _102  and  _105
REMARK   45  A    between atoms: _105  and  _106
REMARK   46  A    between atoms: _109  and  _111
REMARK   47  A    between atoms: _111  and  _112
REMARK   48  A    between atoms: _114  and  _116
REMARK   49  A    between atoms: _116  and  _117
REMARK   50  A    between atoms: _119  and  _121
REMARK   51  A    between atoms: _121  and  _122
REMARK   52  A    between atoms: _121  and  _124
REMARK   53  A    between atoms: _124  and  _125
REMARK   54  A    between atoms: _128  and  _130
REMARK   55  A    between atoms: _130  and  _131
REMARK   56  A    between atoms: _133  and  _135
REMARK   57  A    between atoms: _135  and  _136
REMARK   58  A    between atoms: _138  and  _140
REMARK   59  A    between atoms: _140  and  _141
REMARK   60  A    between atoms: _140  and  _143
REMARK   61  A    between atoms: _143  and  _144
REMARK   62  A    between atoms: _150  and  _152
REMARK   63  A    between atoms: _152  and  _153
REMARK   64  A    between atoms: _152  and  _155
REMARK   65  A    between atoms: _155  and  _156
REMARK   66  A    between atoms: _160  and  _161
REMARK   67  A    between atoms: _166  and  _168
REMARK   68  A    between atoms: _168  and  _169
REMARK   69  A    between atoms: _168  and  _171
REMARK   70  A    between atoms: _174  and  _176
REMARK   71  A    between atoms: _176  and  _177
REMARK   72  A    between atoms: _176  and  _179
REMARK   73  A    between atoms: _179  and  _180
REMARK   74  A    between atoms: _185  and  _187
REMARK   75  A    between atoms: _187  and  _188
REMARK   76  A    between atoms: _187  and  _190
REMARK   77  A    between atoms: _190  and  _191
REMARK   78  A    between atoms: _194  and  _196
REMARK   79  A    between atoms: _196  and  _197
REMARK   80  A    between atoms: _196  and  _199
REMARK   81  A    between atoms: _199  and  _200
REMARK   82  A    between atoms: _203  and  _205
REMARK   83  A    between atoms: _205  and  _206
REMARK   84  A    between atoms: _208  and  _210
REMARK   85  A    between atoms: _210  and  _211
REMARK   86  A    between atoms: _210  and  _213
REMARK   87  A    between atoms: _213  and  _214
REMARK   88  A    between atoms: _214  and  _215
REMARK   89  A    between atoms: _215  and  _216
REMARK   90  A    between atoms: _225  and  _227
REMARK   91  A    between atoms: _227  and  _228
REMARK   92  A    between atoms: _227  and  _230
REMARK   93  A    between atoms: _230  and  _231
REMARK   94  A    between atoms: _231  and  _232
REMARK   95  A    between atoms: _232  and  _233
REMARK   96  A    between atoms: _242  and  _244
REMARK   97  A    between atoms: _244  and  _245
REMARK   98  A    between atoms: _244  and  _247
REMARK   99  A    between atoms: _247  and  _248
REMARK  100  A    between atoms: _251  and  _253
REMARK  101  A    between atoms: _253  and  _254
REMARK  102  A    between atoms: _253  and  _256
REMARK  103  A    between atoms: _256  and  _257
REMARK  104  A    between atoms: _260  and  _262
REMARK  105  A    between atoms: _262  and  _263
REMARK  106  A    between atoms: _262  and  _265
REMARK  107  A    between atoms: _265  and  _266
REMARK  108  A    between atoms: _269  and  _271
REMARK  109  A    between atoms: _271  and  _272
REMARK  110  A    between atoms: _271  and  _274
REMARK  111  A    between atoms: _274  and  _275
REMARK  112  A    between atoms: _278  and  _280
REMARK  113  A    between atoms: _280  and  _281
REMARK  114  A    between atoms: _283  and  _285
REMARK  115  A    between atoms: _285  and  _286
REMARK  116  A    between atoms: _289  and  _291
REMARK  117  A    between atoms: _291  and  _292
REMARK  118  A    between atoms: _291  and  _294
REMARK  119  A    between atoms: _294  and  _295
REMARK  120  A    between atoms: _298  and  _300
REMARK  121  A    between atoms: _300  and  _301
REMARK  122  A    between atoms: _300  and  _303
REMARK  123  A    between atoms: _303  and  _304
REMARK  124  A    between atoms: _307  and  _309
REMARK  125  A    between atoms: _309  and  _310
REMARK  126  A    between atoms: _309  and  _312
REMARK  127  A    between atoms: _312  and  _313
REMARK  128  A    between atoms: _316  and  _318
REMARK  129  A    between atoms: _318  and  _319
REMARK  130  A    between atoms: _318  and  _321
REMARK  131  A    between atoms: _324  and  _326
REMARK  132  A    between atoms: _326  and  _327
REMARK  133  A    between atoms: _326  and  _329
REMARK  134  A    between atoms: _329  and  _330
REMARK  135  A    between atoms: _330  and  _331
REMARK  136  A    between atoms: _331  and  _332
REMARK  137  A    between atoms: _332  and  _333
REMARK  138  A    between atoms: _337  and  _339
REMARK  139  A    between atoms: _339  and  _340
REMARK  140  A    between atoms: _339  and  _342
REMARK  141  A    between atoms: _342  and  _343
REMARK  142  A    between atoms: _343  and  _344
REMARK  143  A    between atoms: _346  and  _348
REMARK  144  A    between atoms: _348  and  _349
REMARK  145  A    between atoms: _348  and  _351
REMARK  146  A    between atoms: _351  and  _352
REMARK  147  A    between atoms: _355  and  _357
REMARK  148  A    between atoms: _357  and  _358
REMARK  149  A    between atoms: _360  and  _362
REMARK  150  A    between atoms: _362  and  _363
REMARK  151  A    between atoms: _365  and  _367
REMARK  152  A    between atoms: _367  and  _368
REMARK  153  A    between atoms: _367  and  _370
REMARK  154  A    between atoms: _370  and  _371
REMARK  155  A    between atoms: _374  and  _376
REMARK  156  A    between atoms: _376  and  _377
REMARK  157  A    between atoms: _379  and  _381
REMARK  158  A    between atoms: _381  and  _382
REMARK  159  A    between atoms: _384  and  _386
REMARK  160  A    between atoms: _386  and  _387
REMARK  161  A    between atoms: _386  and  _389
REMARK  162  A    between atoms: _389  and  _390
REMARK  163  A    between atoms: _393  and  _395
REMARK  164  A    between atoms: _395  and  _396
REMARK  165  A    between atoms: _395  and  _398
REMARK  166  A    between atoms: _401  and  _403
REMARK  167  A    between atoms: _403  and  _404
REMARK  168  A    between atoms: _403  and  _406
REMARK  169  A    between atoms: _406  and  _407
REMARK  170  A    between atoms: _410  and  _412
REMARK  171  A    between atoms: _412  and  _413
REMARK  172  A    between atoms: _412  and  _415
REMARK  173  A    between atoms: _415  and  _416
REMARK  174  A    between atoms: _420  and  _421
REMARK  175  A    between atoms: _426  and  _428
REMARK  176  A    between atoms: _428  and  _429
REMARK  177  A    between atoms: _428  and  _431
REMARK  178  A    between atoms: _434  and  _436
REMARK  179  A    between atoms: _436  and  _437
REMARK  180  A    between atoms: _436  and  _439
REMARK  181  A    between atoms: _439  and  _440
REMARK  182  A    between atoms: _445  and  _447
REMARK  183  A    between atoms: _447  and  _448
REMARK  184  A    between atoms: _447  and  _450
REMARK  185  A    between atoms: _450  and  _451
REMARK  186  A    between atoms: _454  and  _456
REMARK  187  A    between atoms: _456  and  _457
REMARK  188  A    between atoms: _456  and  _459
REMARK  189  A    between atoms: _459  and  _460
REMARK  190  A    between atoms: _463  and  _465
REMARK  191  A    between atoms: _465  and  _466
REMARK  192  A    between atoms: _468  and  _470
REMARK  193  A    between atoms: _470  and  _471
REMARK  194  A    between atoms: _470  and  _473
REMARK  195  A    between atoms: _473  and  _474
REMARK  196  A    between atoms: _474  and  _475
REMARK  197  A    between atoms: _475  and  _476
REMARK  198  A    between atoms: _485  and  _487
REMARK  199  A    between atoms: _487  and  _488
REMARK  200  A    between atoms: _487  and  _490
REMARK  201  A    between atoms: _490  and  _491
REMARK                            x       y       z     vdW  Elec       q    Type
REMARK                         _______ _______ _______ _____ _____    ______ ____
ROOT
ATOM      1  O   HOH     1      19.426  21.999   6.118  0.00  0.00    +0.000 OA
ENDROOT
TORSDOF 0
REMARK  Name = ../refined-set-2016/2qi7/2qi7_pocket.pdb
REMARK  201 active torsions:
REMARK  status: ('A' for Active; 'I' for Inactive)
REMARK    1  A    between atoms: _1  and  _3
REMARK    2  A    between atoms: _3  and  _4
REMARK    3  A    between atoms: _3  and  _6
REMARK    4  A    between atoms: _6  and  _7
REMARK    5  A    between atoms: _7  and  _8
REMARK    6  A    between atoms: _8  and  _9
REMARK    7  A    between atoms: _18  and  _20
REMARK    8  A    between atoms: _20  and  _21
REMARK    9  A    between atoms: _20  and  _23
REMARK   10  A    between atoms: _23  and  _24
REMARK   11  A    between atoms: _27  and  _29
REMARK   12  A    between atoms: _29  and  _30
REMARK   13  A    between atoms: _29  and  _32
REMARK   14  A    between atoms: _32  and  _33
REMARK   15  A    between atoms: _36  and  _38
REMARK   16  A    between atoms: _38  and  _39
REMARK   17  A    between atoms: _38  and  _41
REMARK   18  A    between atoms: _41  and  _42
REMARK   19  A    between atoms: _45  and  _47
REMARK   20  A    between atoms: _47  and  _48
REMARK   21  A    between atoms: _47  and  _50
REMARK   22  A    between atoms: _50  and  _51
REMARK   23  A    between atoms: _54  and  _56
REMARK   24  A    between atoms: _56  and  _57
REMARK   25  A    between atoms: _59  and  _61
REMARK   26  A    between atoms: _61  and  _62
REMARK   27  A    between atoms: _65  and  _67
REMARK   28  A    between atoms: _67  and  _68
REMARK   29  A    between atoms: _67  and  _70
REMARK   30  A    between atoms: _70  and  _71
REMARK   31  A    between atoms: _74  and  _76
REMARK   32  A    between atoms: _76  and  _77
REMARK   33  A    between atoms: _76  and  _79
REMARK   34  A    between atoms: _79  and  _80
REMARK   35  A    between atoms: _83  and  _85
REMARK   36  A    between atoms: _85  and  _86
REMARK   37  A    between atoms: _85  and  _88
REMARK   38  A    between atoms: _88  and  _89
REMARK   39  A    between atoms: _92  and  _94
REMARK   40  A    between atoms: _94  and  _95
REMARK   41  A    between atoms: _94  and  _97
REMARK   42  A    between atoms: _100  and  _102
REMARK   43  A    between atoms: _102  and  _103
REMARK   44  A    between atoms: _102  and  _105
REMARK   45  A    between atoms: _105  and  _106
REMARK   46  A    between atoms: _109  and  _111
REMARK   47  A    between atoms: _111  and  _112
REMARK   48  A    between atoms: _114  and  _116
REMARK   49  A    between atoms: _116  and  _117
REMARK   50  A    between atoms: _119  and  _121
REMARK   51  A    between atoms: _121  and  _122
REMARK   52  A    between atoms: _121  and  _124
REMARK   53  A    between atoms: _124  and  _125
REMARK   54  A    between atoms: _128  and  _130
REMARK   55  A    between atoms: _130  and  _131
REMARK   56  A    between atoms: _133  and  _135
REMARK   57  A    between atoms: _135  and  _136
REMARK   58  A    between atoms: _138  and  _140
REMARK   59  A    between atoms: _140  and  _141
REMARK   60  A    between atoms: _140  and  _143
REMARK   61  A    between atoms: _143  and  _144
REMARK   62  A    between atoms: _150  and  _152
REMARK   63  A    between atoms: _152  and  _153
REMARK   64  A    between atoms: _152  and  _155
REMARK   65  A    between atoms: _155  and  _156
REMARK   66  A    between atoms: _160  and  _161
REMARK   67  A    between atoms: _166  and  _168
REMARK   68  A    between atoms: _168  and  _169
REMARK   69  A    between atoms: _168  and  _171
REMARK   70  A    between atoms: _174  and  _176
REMARK   71  A    between atoms: _176  and  _177
REMARK   72  A    between atoms: _176  and  _179
REMARK   73  A    between atoms: _179  and  _180
REMARK   74  A    between atoms: _185  and  _187
REMARK   75  A    between atoms: _187  and  _188
REMARK   76  A    between atoms: _187  and  _190
REMARK   77  A    between atoms: _190  and  _191
REMARK   78  A    between atoms: _194  and  _196
REMARK   79  A    between atoms: _196  and  _197
REMARK   80  A    between atoms: _196  and  _199
REMARK   81  A    between atoms: _199  and  _200
REMARK   82  A    between atoms: _203  and  _205
REMARK   83  A    between atoms: _205  and  _206
REMARK   84  A    between atoms: _208  and  _210
REMARK   85  A    between atoms: _210  and  _211
REMARK   86  A    between atoms: _210  and  _213
REMARK   87  A    between atoms: _213  and  _214
REMARK   88  A    between atoms: _214  and  _215
REMARK   89  A    between atoms: _215  and  _216
REMARK   90  A    between atoms: _225  and  _227
REMARK   91  A    between atoms: _227  and  _228
REMARK   92  A    between atoms: _227  and  _230
REMARK   93  A    between atoms: _230  and  _231
REMARK   94  A    between atoms: _231  and  _232
REMARK   95  A    between atoms: _232  and  _233
REMARK   96  A    between atoms: _242  and  _244
REMARK   97  A    between atoms: _244  and  _245
REMARK   98  A    between atoms: _244  and  _247
REMARK   99  A    between atoms: _247  and  _248
REMARK  100  A    between atoms: _251  and  _253
REMARK  101  A    between atoms: _253  and  _254
REMARK  102  A    between atoms: _253  and  _256
REMARK  103  A    between atoms: _256  and  _257
REMARK  104  A    between atoms: _260  and  _262
REMARK  105  A    between atoms: _262  and  _263
REMARK  106  A    between atoms: _262  and  _265
REMARK  107  A    between atoms: _265  and  _266
REMARK  108  A    between atoms: _269  and  _271
REMARK  109  A    between atoms: _271  and  _272
REMARK  110  A    between atoms: _271  and  _274
REMARK  111  A    between atoms: _274  and  _275
REMARK  112  A    between atoms: _278  and  _280
REMARK  113  A    between atoms: _280  and  _281
REMARK  114  A    between atoms: _283  and  _285
REMARK  115  A    between atoms: _285  and  _286
REMARK  116  A    between atoms: _289  and  _291
REMARK  117  A    between atoms: _291  and  _292
REMARK  118  A    between atoms: _291  and  _294
REMARK  119  A    between atoms: _294  and  _295
REMARK  120  A    between atoms: _298  and  _300
REMARK  121  A    between atoms: _300  and  _301
REMARK  122  A    between atoms: _300  and  _303
REMARK  123  A    between atoms: _303  and  _304
REMARK  124  A    between atoms: _307  and  _309
REMARK  125  A    between atoms: _309  and  _310
REMARK  126  A    between atoms: _309  and  _312
REMARK  127  A    between atoms: _312  and  _313
REMARK  128  A    between atoms: _316  and  _318
REMARK  129  A    between atoms: _318  and  _319
REMARK  130  A    between atoms: _318  and  _321
REMARK  131  A    between atoms: _324  and  _326
REMARK  132  A    between atoms: _326  and  _327
REMARK  133  A    between atoms: _326  and  _329
REMARK  134  A    between atoms: _329  and  _330
REMARK  135  A    between atoms: _330  and  _331
REMARK  136  A    between atoms: _331  and  _332
REMARK  137  A    between atoms: _332  and  _333
REMARK  138  A    between atoms: _337  and  _339
REMARK  139  A    between atoms: _339  and  _340
REMARK  140  A    between atoms: _339  and  _342
REMARK  141  A    between atoms: _342  and  _343
REMARK  142  A    between atoms: _343  and  _344
REMARK  143  A    between atoms: _346  and  _348
REMARK  144  A    between atoms: _348  and  _349
REMARK  145  A    between atoms: _348  and  _351
REMARK  146  A    between atoms: _351  and  _352
REMARK  147  A    between atoms: _355  and  _357
REMARK  148  A    between atoms: _357  and  _358
REMARK  149  A    between atoms: _360  and  _362
REMARK  150  A    between atoms: _362  and  _363
REMARK  151  A    between atoms: _365  and  _367
REMARK  152  A    between atoms: _367  and  _368
REMARK  153  A    between atoms: _367  and  _370
REMARK  154  A    between atoms: _370  and  _371
REMARK  155  A    between atoms: _374  and  _376
REMARK  156  A    between atoms: _376  and  _377
REMARK  157  A    between atoms: _379  and  _381
REMARK  158  A    between atoms: _381  and  _382
REMARK  159  A    between atoms: _384  and  _386
REMARK  160  A    between atoms: _386  and  _387
REMARK  161  A    between atoms: _386  and  _389
REMARK  162  A    between atoms: _389  and  _390
REMARK  163  A    between atoms: _393  and  _395
REMARK  164  A    between atoms: _395  and  _396
REMARK  165  A    between atoms: _395  and  _398
REMARK  166  A    between atoms: _401  and  _403
REMARK  167  A    between atoms: _403  and  _404
REMARK  168  A    between atoms: _403  and  _406
REMARK  169  A    between atoms: _406  and  _407
REMARK  170  A    between atoms: _410  and  _412
REMARK  171  A    between atoms: _412  and  _413
REMARK  172  A    between atoms: _412  and  _415
REMARK  173  A    between atoms: _415  and  _416
REMARK  174  A    between atoms: _420  and  _421
REMARK  175  A    between atoms: _426  and  _428
REMARK  176  A    between atoms: _428  and  _429
REMARK  177  A    between atoms: _428  and  _431
REMARK  178  A    between atoms: _434  and  _436
REMARK  179  A    between atoms: _436  and  _437
REMARK  180  A    between atoms: _436  and  _439
REMARK  181  A    between atoms: _439  and  _440
REMARK  182  A    between atoms: _445  and  _447
REMARK  183  A    between atoms: _447  and  _448
REMARK  184  A    between atoms: _447  and  _450
REMARK  185  A    between atoms: _450  and  _451
REMARK  186  A    between atoms: _454  and  _456
REMARK  187  A    between atoms: _456  and  _457
REMARK  188  A    between atoms: _456  and  _459
REMARK  189  A    between atoms: _459  and  _460
REMARK  190  A    between atoms: _463  and  _465
REMARK  191  A    between atoms: _465  and  _466
REMARK  192  A    between atoms: _468  and  _470
REMARK  193  A    between atoms: _470  and  _471
REMARK  194  A    between atoms: _470  and  _473
REMARK  195  A    between atoms: _473  and  _474
REMARK  196  A    between atoms: _474  and  _475
REMARK  197  A    between atoms: _475  and  _476
REMARK  198  A    between atoms: _485  and  _487
REMARK  199  A    between atoms: _487  and  _488
REMARK  200  A    between atoms: _487  and  _490
REMARK  201  A    between atoms: _490  and  _491
REMARK                            x       y       z     vdW  Elec       q    Type
REMARK                         _______ _______ _______ _____ _____    ______ ____
ROOT
ATOM      1  O   HOH     1      18.206  18.739   6.005  0.00  0.00    +0.000 OA
ENDROOT
TORSDOF 0
REMARK  Name = ../refined-set-2016/2qi7/2qi7_pocket.pdb
REMARK  201 active torsions:
REMARK  status: ('A' for Active; 'I' for Inactive)
REMARK    1  A    between atoms: _1  and  _3
REMARK    2  A    between atoms: _3  and  _4
REMARK    3  A    between atoms: _3  and  _6
REMARK    4  A    between atoms: _6  and  _7
REMARK    5  A    between atoms: _7  and  _8
REMARK    6  A    between atoms: _8  and  _9
REMARK    7  A    between atoms: _18  and  _20
REMARK    8  A    between atoms: _20  and  _21
REMARK    9  A    between atoms: _20  and  _23
REMARK   10  A    between atoms: _23  and  _24
REMARK   11  A    between atoms: _27  and  _29
REMARK   12  A    between atoms: _29  and  _30
REMARK   13  A    between atoms: _29  and  _32
REMARK   14  A    between atoms: _32  and  _33
REMARK   15  A    between atoms: _36  and  _38
REMARK   16  A    between atoms: _38  and  _39
REMARK   17  A    between atoms: _38  and  _41
REMARK   18  A    between atoms: _41  and  _42
REMARK   19  A    between atoms: _45  and  _47
REMARK   20  A    between atoms: _47  and  _48
REMARK   21  A    between atoms: _47  and  _50
REMARK   22  A    between atoms: _50  and  _51
REMARK   23  A    between atoms: _54  and  _56
REMARK   24  A    between atoms: _56  and  _57
REMARK   25  A    between atoms: _59  and  _61
REMARK   26  A    between atoms: _61  and  _62
REMARK   27  A    between atoms: _65  and  _67
REMARK   28  A    between atoms: _67  and  _68
REMARK   29  A    between atoms: _67  and  _70
REMARK   30  A    between atoms: _70  and  _71
REMARK   31  A    between atoms: _74  and  _76
REMARK   32  A    between atoms: _76  and  _77
REMARK   33  A    between atoms: _76  and  _79
REMARK   34  A    between atoms: _79  and  _80
REMARK   35  A    between atoms: _83  and  _85
REMARK   36  A    between atoms: _85  and  _86
REMARK   37  A    between atoms: _85  and  _88
REMARK   38  A    between atoms: _88  and  _89
REMARK   39  A    between atoms: _92  and  _94
REMARK   40  A    between atoms: _94  and  _95
REMARK   41  A    between atoms: _94  and  _97
REMARK   42  A    between atoms: _100  and  _102
REMARK   43  A    between atoms: _102  and  _103
REMARK   44  A    between atoms: _102  and  _105
REMARK   45  A    between atoms: _105  and  _106
REMARK   46  A    between atoms: _109  and  _111
REMARK   47  A    between atoms: _111  and  _112
REMARK   48  A    between atoms: _114  and  _116
REMARK   49  A    between atoms: _116  and  _117
REMARK   50  A    between atoms: _119  and  _121
REMARK   51  A    between atoms: _121  and  _122
REMARK   52  A    between atoms: _121  and  _124
REMARK   53  A    between atoms: _124  and  _125
REMARK   54  A    between atoms: _128  and  _130
REMARK   55  A    between atoms: _130  and  _131
REMARK   56  A    between atoms: _133  and  _135
REMARK   57  A    between atoms: _135  and  _136
REMARK   58  A    between atoms: _138  and  _140
REMARK   59  A    between atoms: _140  and  _141
REMARK   60  A    between atoms: _140  and  _143
REMARK   61  A    between atoms: _143  and  _144
REMARK   62  A    between atoms: _150  and  _152
REMARK   63  A    between atoms: _152  and  _153
REMARK   64  A    between atoms: _152  and  _155
REMARK   65  A    between atoms: _155  and  _156
REMARK   66  A    between atoms: _160  and  _161
REMARK   67  A    between atoms: _166  and  _168
REMARK   68  A    between atoms: _168  and  _169
REMARK   69  A    between atoms: _168  and  _171
REMARK   70  A    between atoms: _174  and  _176
REMARK   71  A    between atoms: _176  and  _177
REMARK   72  A    between atoms: _176  and  _179
REMARK   73  A    between atoms: _179  and  _180
REMARK   74  A    between atoms: _185  and  _187
REMARK   75  A    between atoms: _187  and  _188
REMARK   76  A    between atoms: _187  and  _190
REMARK   77  A    between atoms: _190  and  _191
REMARK   78  A    between atoms: _194  and  _196
REMARK   79  A    between atoms: _196  and  _197
REMARK   80  A    between atoms: _196  and  _199
REMARK   81  A    between atoms: _199  and  _200
REMARK   82  A    between atoms: _203  and  _205
REMARK   83  A    between atoms: _205  and  _206
REMARK   84  A    between atoms: _208  and  _210
REMARK   85  A    between atoms: _210  and  _211
REMARK   86  A    between atoms: _210  and  _213
REMARK   87  A    between atoms: _213  and  _214
REMARK   88  A    between atoms: _214  and  _215
REMARK   89  A    between atoms: _215  and  _216
REMARK   90  A    between atoms: _225  and  _227
REMARK   91  A    between atoms: _227  and  _228
REMARK   92  A    between atoms: _227  and  _230
REMARK   93  A    between atoms: _230  and  _231
REMARK   94  A    between atoms: _231  and  _232
REMARK   95  A    between atoms: _232  and  _233
REMARK   96  A    between atoms: _242  and  _244
REMARK   97  A    between atoms: _244  and  _245
REMARK   98  A    between atoms: _244  and  _247
REMARK   99  A    between atoms: _247  and  _248
REMARK  100  A    between atoms: _251  and  _253
REMARK  101  A    between atoms: _253  and  _254
REMARK  102  A    between atoms: _253  and  _256
REMARK  103  A    between atoms: _256  and  _257
REMARK  104  A    between atoms: _260  and  _262
REMARK  105  A    between atoms: _262  and  _263
REMARK  106  A    between atoms: _262  and  _265
REMARK  107  A    between atoms: _265  and  _266
REMARK  108  A    between atoms: _269  and  _271
REMARK  109  A    between atoms: _271  and  _272
REMARK  110  A    between atoms: _271  and  _274
REMARK  111  A    between atoms: _274  and  _275
REMARK  112  A    between atoms: _278  and  _280
REMARK  113  A    between atoms: _280  and  _281
REMARK  114  A    between atoms: _283  and  _285
REMARK  115  A    between atoms: _285  and  _286
REMARK  116  A    between atoms: _289  and  _291
REMARK  117  A    between atoms: _291  and  _292
REMARK  118  A    between atoms: _291  and  _294
REMARK  119  A    between atoms: _294  and  _295
REMARK  120  A    between atoms: _298  and  _300
REMARK  121  A    between atoms: _300  and  _301
REMARK  122  A    between atoms: _300  and  _303
REMARK  123  A    between atoms: _303  and  _304
REMARK  124  A    between atoms: _307  and  _309
REMARK  125  A    between atoms: _309  and  _310
REMARK  126  A    between atoms: _309  and  _312
REMARK  127  A    between atoms: _312  and  _313
REMARK  128  A    between atoms: _316  and  _318
REMARK  129  A    between atoms: _318  and  _319
REMARK  130  A    between atoms: _318  and  _321
REMARK  131  A    between atoms: _324  and  _326
REMARK  132  A    between atoms: _326  and  _327
REMARK  133  A    between atoms: _326  and  _329
REMARK  134  A    between atoms: _329  and  _330
REMARK  135  A    between atoms: _330  and  _331
REMARK  136  A    between atoms: _331  and  _332
REMARK  137  A    between atoms: _332  and  _333
REMARK  138  A    between atoms: _337  and  _339
REMARK  139  A    between atoms: _339  and  _340
REMARK  140  A    between atoms: _339  and  _342
REMARK  141  A    between atoms: _342  and  _343
REMARK  142  A    between atoms: _343  and  _344
REMARK  143  A    between atoms: _346  and  _348
REMARK  144  A    between atoms: _348  and  _349
REMARK  145  A    between atoms: _348  and  _351
REMARK  146  A    between atoms: _351  and  _352
REMARK  147  A    between atoms: _355  and  _357
REMARK  148  A    between atoms: _357  and  _358
REMARK  149  A    between atoms: _360  and  _362
REMARK  150  A    between atoms: _362  and  _363
REMARK  151  A    between atoms: _365  and  _367
REMARK  152  A    between atoms: _367  and  _368
REMARK  153  A    between atoms: _367  and  _370
REMARK  154  A    between atoms: _370  and  _371
REMARK  155  A    between atoms: _374  and  _376
REMARK  156  A    between atoms: _376  and  _377
REMARK  157  A    between atoms: _379  and  _381
REMARK  158  A    between atoms: _381  and  _382
REMARK  159  A    between atoms: _384  and  _386
REMARK  160  A    between atoms: _386  and  _387
REMARK  161  A    between atoms: _386  and  _389
REMARK  162  A    between atoms: _389  and  _390
REMARK  163  A    between atoms: _393  and  _395
REMARK  164  A    between atoms: _395  and  _396
REMARK  165  A    between atoms: _395  and  _398
REMARK  166  A    between atoms: _401  and  _403
REMARK  167  A    between atoms: _403  and  _404
REMARK  168  A    between atoms: _403  and  _406
REMARK  169  A    between atoms: _406  and  _407
REMARK  170  A    between atoms: _410  and  _412
REMARK  171  A    between atoms: _412  and  _413
REMARK  172  A    between atoms: _412  and  _415
REMARK  173  A    between atoms: _415  and  _416
REMARK  174  A    between atoms: _420  and  _421
REMARK  175  A    between atoms: _426  and  _428
REMARK  176  A    between atoms: _428  and  _429
REMARK  177  A    between atoms: _428  and  _431
REMARK  178  A    between atoms: _434  and  _436
REMARK  179  A    between atoms: _436  and  _437
REMARK  180  A    between atoms: _436  and  _439
REMARK  181  A    between atoms: _439  and  _440
REMARK  182  A    between atoms: _445  and  _447
REMARK  183  A    between atoms: _447  and  _448
REMARK  184  A    between atoms: _447  and  _450
REMARK  185  A    between atoms: _450  and  _451
REMARK  186  A    between atoms: _454  and  _456
REMARK  187  A    between atoms: _456  and  _457
REMARK  188  A    between atoms: _456  and  _459
REMARK  189  A    between atoms: _459  and  _460
REMARK  190  A    between atoms: _463  and  _465
REMARK  191  A    between atoms: _465  and  _466
REMARK  192  A    between atoms: _468  and  _470
REMARK  193  A    between atoms: _470  and  _471
REMARK  194  A    between atoms: _470  and  _473
REMARK  195  A    between atoms: _473  and  _474
REMARK  196  A    between atoms: _474  and  _475
REMARK  197  A    between atoms: _475  and  _476
REMARK  198  A    between atoms: _485  and  _487
REMARK  199  A    between atoms: _487  and  _488
REMARK  200  A    between atoms: _487  and  _490
REMARK  201  A    between atoms: _490  and  _491
REMARK                            x       y       z     vdW  Elec       q    Type
REMARK                         _______ _______ _______ _____ _____    ______ ____
ROOT
ATOM      1  O   HOH     1      13.380  43.348  17.429  0.00  0.00    +0.000 OA
ENDROOT
TORSDOF 0
REMARK  Name = ../refined-set-2016/2qi7/2qi7_pocket.pdb
REMARK  201 active torsions:
REMARK  status: ('A' for Active; 'I' for Inactive)
REMARK    1  A    between atoms: _1  and  _3
REMARK    2  A    between atoms: _3  and  _4
REMARK    3  A    between atoms: _3  and  _6
REMARK    4  A    between atoms: _6  and  _7
REMARK    5  A    between atoms: _7  and  _8
REMARK    6  A    between atoms: _8  and  _9
REMARK    7  A    between atoms: _18  and  _20
REMARK    8  A    between atoms: _20  and  _21
REMARK    9  A    between atoms: _20  and  _23
REMARK   10  A    between atoms: _23  and  _24
REMARK   11  A    between atoms: _27  and  _29
REMARK   12  A    between atoms: _29  and  _30
REMARK   13  A    between atoms: _29  and  _32
REMARK   14  A    between atoms: _32  and  _33
REMARK   15  A    between atoms: _36  and  _38
REMARK   16  A    between atoms: _38  and  _39
REMARK   17  A    between atoms: _38  and  _41
REMARK   18  A    between atoms: _41  and  _42
REMARK   19  A    between atoms: _45  and  _47
REMARK   20  A    between atoms: _47  and  _48
REMARK   21  A    between atoms: _47  and  _50
REMARK   22  A    between atoms: _50  and  _51
REMARK   23  A    between atoms: _54  and  _56
REMARK   24  A    between atoms: _56  and  _57
REMARK   25  A    between atoms: _59  and  _61
REMARK   26  A    between atoms: _61  and  _62
REMARK   27  A    between atoms: _65  and  _67
REMARK   28  A    between atoms: _67  and  _68
REMARK   29  A    between atoms: _67  and  _70
REMARK   30  A    between atoms: _70  and  _71
REMARK   31  A    between atoms: _74  and  _76
REMARK   32  A    between atoms: _76  and  _77
REMARK   33  A    between atoms: _76  and  _79
REMARK   34  A    between atoms: _79  and  _80
REMARK   35  A    between atoms: _83  and  _85
REMARK   36  A    between atoms: _85  and  _86
REMARK   37  A    between atoms: _85  and  _88
REMARK   38  A    between atoms: _88  and  _89
REMARK   39  A    between atoms: _92  and  _94
REMARK   40  A    between atoms: _94  and  _95
REMARK   41  A    between atoms: _94  and  _97
REMARK   42  A    between atoms: _100  and  _102
REMARK   43  A    between atoms: _102  and  _103
REMARK   44  A    between atoms: _102  and  _105
REMARK   45  A    between atoms: _105  and  _106
REMARK   46  A    between atoms: _109  and  _111
REMARK   47  A    between atoms: _111  and  _112
REMARK   48  A    between atoms: _114  and  _116
REMARK   49  A    between atoms: _116  and  _117
REMARK   50  A    between atoms: _119  and  _121
REMARK   51  A    between atoms: _121  and  _122
REMARK   52  A    between atoms: _121  and  _124
REMARK   53  A    between atoms: _124  and  _125
REMARK   54  A    between atoms: _128  and  _130
REMARK   55  A    between atoms: _130  and  _131
REMARK   56  A    between atoms: _133  and  _135
REMARK   57  A    between atoms: _135  and  _136
REMARK   58  A    between atoms: _138  and  _140
REMARK   59  A    between atoms: _140  and  _141
REMARK   60  A    between atoms: _140  and  _143
REMARK   61  A    between atoms: _143  and  _144
REMARK   62  A    between atoms: _150  and  _152
REMARK   63  A    between atoms: _152  and  _153
REMARK   64  A    between atoms: _152  and  _155
REMARK   65  A    between atoms: _155  and  _156
REMARK   66  A    between atoms: _160  and  _161
REMARK   67  A    between atoms: _166  and  _168
REMARK   68  A    between atoms: _168  and  _169
REMARK   69  A    between atoms: _168  and  _171
REMARK   70  A    between atoms: _174  and  _176
REMARK   71  A    between atoms: _176  and  _177
REMARK   72  A    between atoms: _176  and  _179
REMARK   73  A    between atoms: _179  and  _180
REMARK   74  A    between atoms: _185  and  _187
REMARK   75  A    between atoms: _187  and  _188
REMARK   76  A    between atoms: _187  and  _190
REMARK   77  A    between atoms: _190  and  _191
REMARK   78  A    between atoms: _194  and  _196
REMARK   79  A    between atoms: _196  and  _197
REMARK   80  A    between atoms: _196  and  _199
REMARK   81  A    between atoms: _199  and  _200
REMARK   82  A    between atoms: _203  and  _205
REMARK   83  A    between atoms: _205  and  _206
REMARK   84  A    between atoms: _208  and  _210
REMARK   85  A    between atoms: _210  and  _211
REMARK   86  A    between atoms: _210  and  _213
REMARK   87  A    between atoms: _213  and  _214
REMARK   88  A    between atoms: _214  and  _215
REMARK   89  A    between atoms: _215  and  _216
REMARK   90  A    between atoms: _225  and  _227
REMARK   91  A    between atoms: _227  and  _228
REMARK   92  A    between atoms: _227  and  _230
REMARK   93  A    between atoms: _230  and  _231
REMARK   94  A    between atoms: _231  and  _232
REMARK   95  A    between atoms: _232  and  _233
REMARK   96  A    between atoms: _242  and  _244
REMARK   97  A    between atoms: _244  and  _245
REMARK   98  A    between atoms: _244  and  _247
REMARK   99  A    between atoms: _247  and  _248
REMARK  100  A    between atoms: _251  and  _253
REMARK  101  A    between atoms: _253  and  _254
REMARK  102  A    between atoms: _253  and  _256
REMARK  103  A    between atoms: _256  and  _257
REMARK  104  A    between atoms: _260  and  _262
REMARK  105  A    between atoms: _262  and  _263
REMARK  106  A    between atoms: _262  and  _265
REMARK  107  A    between atoms: _265  and  _266
REMARK  108  A    between atoms: _269  and  _271
REMARK  109  A    between atoms: _271  and  _272
REMARK  110  A    between atoms: _271  and  _274
REMARK  111  A    between atoms: _274  and  _275
REMARK  112  A    between atoms: _278  and  _280
REMARK  113  A    between atoms: _280  and  _281
REMARK  114  A    between atoms: _283  and  _285
REMARK  115  A    between atoms: _285  and  _286
REMARK  116  A    between atoms: _289  and  _291
REMARK  117  A    between atoms: _291  and  _292
REMARK  118  A    between atoms: _291  and  _294
REMARK  119  A    between atoms: _294  and  _295
REMARK  120  A    between atoms: _298  and  _300
REMARK  121  A    between atoms: _300  and  _301
REMARK  122  A    between atoms: _300  and  _303
REMARK  123  A    between atoms: _303  and  _304
REMARK  124  A    between atoms: _307  and  _309
REMARK  125  A    between atoms: _309  and  _310
REMARK  126  A    between atoms: _309  and  _312
REMARK  127  A    between atoms: _312  and  _313
REMARK  128  A    between atoms: _316  and  _318
REMARK  129  A    between atoms: _318  and  _319
REMARK  130  A    between atoms: _318  and  _321
REMARK  131  A    between atoms: _324  and  _326
REMARK  132  A    between atoms: _326  and  _327
REMARK  133  A    between atoms: _326  and  _329
REMARK  134  A    between atoms: _329  and  _330
REMARK  135  A    between atoms: _330  and  _331
REMARK  136  A    between atoms: _331  and  _332
REMARK  137  A    between atoms: _332  and  _333
REMARK  138  A    between atoms: _337  and  _339
REMARK  139  A    between atoms: _339  and  _340
REMARK  140  A    between atoms: _339  and  _342
REMARK  141  A    between atoms: _342  and  _343
REMARK  142  A    between atoms: _343  and  _344
REMARK  143  A    between atoms: _346  and  _348
REMARK  144  A    between atoms: _348  and  _349
REMARK  145  A    between atoms: _348  and  _351
REMARK  146  A    between atoms: _351  and  _352
REMARK  147  A    between atoms: _355  and  _357
REMARK  148  A    between atoms: _357  and  _358
REMARK  149  A    between atoms: _360  and  _362
REMARK  150  A    between atoms: _362  and  _363
REMARK  151  A    between atoms: _365  and  _367
REMARK  152  A    between atoms: _367  and  _368
REMARK  153  A    between atoms: _367  and  _370
REMARK  154  A    between atoms: _370  and  _371
REMARK  155  A    between atoms: _374  and  _376
REMARK  156  A    between atoms: _376  and  _377
REMARK  157  A    between atoms: _379  and  _381
REMARK  158  A    between atoms: _381  and  _382
REMARK  159  A    between atoms: _384  and  _386
REMARK  160  A    between atoms: _386  and  _387
REMARK  161  A    between atoms: _386  and  _389
REMARK  162  A    between atoms: _389  and  _390
REMARK  163  A    between atoms: _393  and  _395
REMARK  164  A    between atoms: _395  and  _396
REMARK  165  A    between atoms: _395  and  _398
REMARK  166  A    between atoms: _401  and  _403
REMARK  167  A    between atoms: _403  and  _404
REMARK  168  A    between atoms: _403  and  _406
REMARK  169  A    between atoms: _406  and  _407
REMARK  170  A    between atoms: _410  and  _412
REMARK  171  A    between atoms: _412  and  _413
REMARK  172  A    between atoms: _412  and  _415
REMARK  173  A    between atoms: _415  and  _416
REMARK  174  A    between atoms: _420  and  _421
REMARK  175  A    between atoms: _426  and  _428
REMARK  176  A    between atoms: _428  and  _429
REMARK  177  A    between atoms: _428  and  _431
REMARK  178  A    between atoms: _434  and  _436
REMARK  179  A    between atoms: _436  and  _437
REMARK  180  A    between atoms: _436  and  _439
REMARK  181  A    between atoms: _439  and  _440
REMARK  182  A    between atoms: _445  and  _447
REMARK  183  A    between atoms: _447  and  _448
REMARK  184  A    between atoms: _447  and  _450
REMARK  185  A    between atoms: _450  and  _451
REMARK  186  A    between atoms: _454  and  _456
REMARK  187  A    between atoms: _456  and  _457
REMARK  188  A    between atoms: _456  and  _459
REMARK  189  A    between atoms: _459  and  _460
REMARK  190  A    between atoms: _463  and  _465
REMARK  191  A    between atoms: _465  and  _466
REMARK  192  A    between atoms: _468  and  _470
REMARK  193  A    between atoms: _470  and  _471
REMARK  194  A    between atoms: _470  and  _473
REMARK  195  A    between atoms: _473  and  _474
REMARK  196  A    between atoms: _474  and  _475
REMARK  197  A    between atoms: _475  and  _476
REMARK  198  A    between atoms: _485  and  _487
REMARK  199  A    between atoms: _487  and  _488
REMARK  200  A    between atoms: _487  and  _490
REMARK  201  A    between atoms: _490  and  _491
REMARK                            x       y       z     vdW  Elec       q    Type
REMARK                         _______ _______ _______ _____ _____    ______ ____
ROOT
ATOM      1  O   HOH     1      15.841  43.115  16.248  0.00  0.00    +0.000 OA
ENDROOT
TORSDOF 0
REMARK  Name = ../refined-set-2016/2qi7/2qi7_pocket.pdb
REMARK  201 active torsions:
REMARK  status: ('A' for Active; 'I' for Inactive)
REMARK    1  A    between atoms: _1  and  _3
REMARK    2  A    between atoms: _3  and  _4
REMARK    3  A    between atoms: _3  and  _6
REMARK    4  A    between atoms: _6  and  _7
REMARK    5  A    between atoms: _7  and  _8
REMARK    6  A    between atoms: _8  and  _9
REMARK    7  A    between atoms: _18  and  _20
REMARK    8  A    between atoms: _20  and  _21
REMARK    9  A    between atoms: _20  and  _23
REMARK   10  A    between atoms: _23  and  _24
REMARK   11  A    between atoms: _27  and  _29
REMARK   12  A    between atoms: _29  and  _30
REMARK   13  A    between atoms: _29  and  _32
REMARK   14  A    between atoms: _32  and  _33
REMARK   15  A    between atoms: _36  and  _38
REMARK   16  A    between atoms: _38  and  _39
REMARK   17  A    between atoms: _38  and  _41
REMARK   18  A    between atoms: _41  and  _42
REMARK   19  A    between atoms: _45  and  _47
REMARK   20  A    between atoms: _47  and  _48
REMARK   21  A    between atoms: _47  and  _50
REMARK   22  A    between atoms: _50  and  _51
REMARK   23  A    between atoms: _54  and  _56
REMARK   24  A    between atoms: _56  and  _57
REMARK   25  A    between atoms: _59  and  _61
REMARK   26  A    between atoms: _61  and  _62
REMARK   27  A    between atoms: _65  and  _67
REMARK   28  A    between atoms: _67  and  _68
REMARK   29  A    between atoms: _67  and  _70
REMARK   30  A    between atoms: _70  and  _71
REMARK   31  A    between atoms: _74  and  _76
REMARK   32  A    between atoms: _76  and  _77
REMARK   33  A    between atoms: _76  and  _79
REMARK   34  A    between atoms: _79  and  _80
REMARK   35  A    between atoms: _83  and  _85
REMARK   36  A    between atoms: _85  and  _86
REMARK   37  A    between atoms: _85  and  _88
REMARK   38  A    between atoms: _88  and  _89
REMARK   39  A    between atoms: _92  and  _94
REMARK   40  A    between atoms: _94  and  _95
REMARK   41  A    between atoms: _94  and  _97
REMARK   42  A    between atoms: _100  and  _102
REMARK   43  A    between atoms: _102  and  _103
REMARK   44  A    between atoms: _102  and  _105
REMARK   45  A    between atoms: _105  and  _106
REMARK   46  A    between atoms: _109  and  _111
REMARK   47  A    between atoms: _111  and  _112
REMARK   48  A    between atoms: _114  and  _116
REMARK   49  A    between atoms: _116  and  _117
REMARK   50  A    between atoms: _119  and  _121
REMARK   51  A    between atoms: _121  and  _122
REMARK   52  A    between atoms: _121  and  _124
REMARK   53  A    between atoms: _124  and  _125
REMARK   54  A    between atoms: _128  and  _130
REMARK   55  A    between atoms: _130  and  _131
REMARK   56  A    between atoms: _133  and  _135
REMARK   57  A    between atoms: _135  and  _136
REMARK   58  A    between atoms: _138  and  _140
REMARK   59  A    between atoms: _140  and  _141
REMARK   60  A    between atoms: _140  and  _143
REMARK   61  A    between atoms: _143  and  _144
REMARK   62  A    between atoms: _150  and  _152
REMARK   63  A    between atoms: _152  and  _153
REMARK   64  A    between atoms: _152  and  _155
REMARK   65  A    between atoms: _155  and  _156
REMARK   66  A    between atoms: _160  and  _161
REMARK   67  A    between atoms: _166  and  _168
REMARK   68  A    between atoms: _168  and  _169
REMARK   69  A    between atoms: _168  and  _171
REMARK   70  A    between atoms: _174  and  _176
REMARK   71  A    between atoms: _176  and  _177
REMARK   72  A    between atoms: _176  and  _179
REMARK   73  A    between atoms: _179  and  _180
REMARK   74  A    between atoms: _185  and  _187
REMARK   75  A    between atoms: _187  and  _188
REMARK   76  A    between atoms: _187  and  _190
REMARK   77  A    between atoms: _190  and  _191
REMARK   78  A    between atoms: _194  and  _196
REMARK   79  A    between atoms: _196  and  _197
REMARK   80  A    between atoms: _196  and  _199
REMARK   81  A    between atoms: _199  and  _200
REMARK   82  A    between atoms: _203  and  _205
REMARK   83  A    between atoms: _205  and  _206
REMARK   84  A    between atoms: _208  and  _210
REMARK   85  A    between atoms: _210  and  _211
REMARK   86  A    between atoms: _210  and  _213
REMARK   87  A    between atoms: _213  and  _214
REMARK   88  A    between atoms: _214  and  _215
REMARK   89  A    between atoms: _215  and  _216
REMARK   90  A    between atoms: _225  and  _227
REMARK   91  A    between atoms: _227  and  _228
REMARK   92  A    between atoms: _227  and  _230
REMARK   93  A    between atoms: _230  and  _231
REMARK   94  A    between atoms: _231  and  _232
REMARK   95  A    between atoms: _232  and  _233
REMARK   96  A    between atoms: _242  and  _244
REMARK   97  A    between atoms: _244  and  _245
REMARK   98  A    between atoms: _244  and  _247
REMARK   99  A    between atoms: _247  and  _248
REMARK  100  A    between atoms: _251  and  _253
REMARK  101  A    between atoms: _253  and  _254
REMARK  102  A    between atoms: _253  and  _256
REMARK  103  A    between atoms: _256  and  _257
REMARK  104  A    between atoms: _260  and  _262
REMARK  105  A    between atoms: _262  and  _263
REMARK  106  A    between atoms: _262  and  _265
REMARK  107  A    between atoms: _265  and  _266
REMARK  108  A    between atoms: _269  and  _271
REMARK  109  A    between atoms: _271  and  _272
REMARK  110  A    between atoms: _271  and  _274
REMARK  111  A    between atoms: _274  and  _275
REMARK  112  A    between atoms: _278  and  _280
REMARK  113  A    between atoms: _280  and  _281
REMARK  114  A    between atoms: _283  and  _285
REMARK  115  A    between atoms: _285  and  _286
REMARK  116  A    between atoms: _289  and  _291
REMARK  117  A    between atoms: _291  and  _292
REMARK  118  A    between atoms: _291  and  _294
REMARK  119  A    between atoms: _294  and  _295
REMARK  120  A    between atoms: _298  and  _300
REMARK  121  A    between atoms: _300  and  _301
REMARK  122  A    between atoms: _300  and  _303
REMARK  123  A    between atoms: _303  and  _304
REMARK  124  A    between atoms: _307  and  _309
REMARK  125  A    between atoms: _309  and  _310
REMARK  126  A    between atoms: _309  and  _312
REMARK  127  A    between atoms: _312  and  _313
REMARK  128  A    between atoms: _316  and  _318
REMARK  129  A    between atoms: _318  and  _319
REMARK  130  A    between atoms: _318  and  _321
REMARK  131  A    between atoms: _324  and  _326
REMARK  132  A    between atoms: _326  and  _327
REMARK  133  A    between atoms: _326  and  _329
REMARK  134  A    between atoms: _329  and  _330
REMARK  135  A    between atoms: _330  and  _331
REMARK  136  A    between atoms: _331  and  _332
REMARK  137  A    between atoms: _332  and  _333
REMARK  138  A    between atoms: _337  and  _339
REMARK  139  A    between atoms: _339  and  _340
REMARK  140  A    between atoms: _339  and  _342
REMARK  141  A    between atoms: _342  and  _343
REMARK  142  A    between atoms: _343  and  _344
REMARK  143  A    between atoms: _346  and  _348
REMARK  144  A    between atoms: _348  and  _349
REMARK  145  A    between atoms: _348  and  _351
REMARK  146  A    between atoms: _351  and  _352
REMARK  147  A    between atoms: _355  and  _357
REMARK  148  A    between atoms: _357  and  _358
REMARK  149  A    between atoms: _360  and  _362
REMARK  150  A    between atoms: _362  and  _363
REMARK  151  A    between atoms: _365  and  _367
REMARK  152  A    between atoms: _367  and  _368
REMARK  153  A    between atoms: _367  and  _370
REMARK  154  A    between atoms: _370  and  _371
REMARK  155  A    between atoms: _374  and  _376
REMARK  156  A    between atoms: _376  and  _377
REMARK  157  A    between atoms: _379  and  _381
REMARK  158  A    between atoms: _381  and  _382
REMARK  159  A    between atoms: _384  and  _386
REMARK  160  A    between atoms: _386  and  _387
REMARK  161  A    between atoms: _386  and  _389
REMARK  162  A    between atoms: _389  and  _390
REMARK  163  A    between atoms: _393  and  _395
REMARK  164  A    between atoms: _395  and  _396
REMARK  165  A    between atoms: _395  and  _398
REMARK  166  A    between atoms: _401  and  _403
REMARK  167  A    between atoms: _403  and  _404
REMARK  168  A    between atoms: _403  and  _406
REMARK  169  A    between atoms: _406  and  _407
REMARK  170  A    between atoms: _410  and  _412
REMARK  171  A    between atoms: _412  and  _413
REMARK  172  A    between atoms: _412  and  _415
REMARK  173  A    between atoms: _415  and  _416
REMARK  174  A    between atoms: _420  and  _421
REMARK  175  A    between atoms: _426  and  _428
REMARK  176  A    between atoms: _428  and  _429
REMARK  177  A    between atoms: _428  and  _431
REMARK  178  A    between atoms: _434  and  _436
REMARK  179  A    between atoms: _436  and  _437
REMARK  180  A    between atoms: _436  and  _439
REMARK  181  A    between atoms: _439  and  _440
REMARK  182  A    between atoms: _445  and  _447
REMARK  183  A    between atoms: _447  and  _448
REMARK  184  A    between atoms: _447  and  _450
REMARK  185  A    between atoms: _450  and  _451
REMARK  186  A    between atoms: _454  and  _456
REMARK  187  A    between atoms: _456  and  _457
REMARK  188  A    between atoms: _456  and  _459
REMARK  189  A    between atoms: _459  and  _460
REMARK  190  A    between atoms: _463  and  _465
REMARK  191  A    between atoms: _465  and  _466
REMARK  192  A    between atoms: _468  and  _470
REMARK  193  A    between atoms: _470  and  _471
REMARK  194  A    between atoms: _470  and  _473
REMARK  195  A    between atoms: _473  and  _474
REMARK  196  A    between atoms: _474  and  _475
REMARK  197  A    between atoms: _475  and  _476
REMARK  198  A    between atoms: _485  and  _487
REMARK  199  A    between atoms: _487  and  _488
REMARK  200  A    between atoms: _487  and  _490
REMARK  201  A    between atoms: _490  and  _491
REMARK                            x       y       z     vdW  Elec       q    Type
REMARK                         _______ _______ _______ _____ _____    ______ ____
ROOT
ATOM      1  O   HOH     1      17.607  23.641   8.552  0.00  0.00    +0.000 OA
ENDROOT
TORSDOF 0
