REMARK  Name = ../refined-set-2016/1uz4/1uz4_pocket.pdb
REMARK  142 active torsions:
REMARK  status: ('A' for Active; 'I' for Inactive)
REMARK    1  A    between atoms: _1  and  _3
REMARK    2  A    between atoms: _3  and  _4
REMARK    3  A    between atoms: _3  and  _6
REMARK    4  A    between atoms: _6  and  _7
REMARK    5  A    between atoms: _12  and  _14
REMARK    6  A    between atoms: _14  and  _15
REMARK    7  A    between atoms: _14  and  _17
REMARK    8  A    between atoms: _17  and  _18
REMARK    9  A    between atoms: _28  and  _30
REMARK   10  A    between atoms: _30  and  _31
REMARK   11  A    between atoms: _30  and  _33
REMARK   12  A    between atoms: _34  and  _35
REMARK   13  A    between atoms: _35  and  _36
REMARK   14  A    between atoms: _45  and  _47
REMARK   15  A    between atoms: _47  and  _48
REMARK   16  A    between atoms: _47  and  _50
REMARK   17  A    between atoms: _50  and  _51
REMARK   18  A    between atoms: _56  and  _57
REMARK   19  A    between atoms: _59  and  _61
REMARK   20  A    between atoms: _61  and  _62
REMARK   21  A    between atoms: _61  and  _64
REMARK   22  A    between atoms: _64  and  _65
REMARK   23  A    between atoms: _70  and  _72
REMARK   24  A    between atoms: _72  and  _73
REMARK   25  A    between atoms: _72  and  _75
REMARK   26  A    between atoms: _75  and  _76
REMARK   27  A    between atoms: _82  and  _84
REMARK   28  A    between atoms: _84  and  _85
REMARK   29  A    between atoms: _84  and  _87
REMARK   30  A    between atoms: _87  and  _88
REMARK   31  A    between atoms: _98  and  _100
REMARK   32  A    between atoms: _100  and  _101
REMARK   33  A    between atoms: _100  and  _103
REMARK   34  A    between atoms: _103  and  _104
REMARK   35  A    between atoms: _104  and  _105
REMARK   36  A    between atoms: _110  and  _112
REMARK   37  A    between atoms: _112  and  _113
REMARK   38  A    between atoms: _112  and  _115
REMARK   39  A    between atoms: _115  and  _116
REMARK   40  A    between atoms: _126  and  _128
REMARK   41  A    between atoms: _128  and  _129
REMARK   42  A    between atoms: _128  and  _131
REMARK   43  A    between atoms: _131  and  _132
REMARK   44  A    between atoms: _134  and  _136
REMARK   45  A    between atoms: _136  and  _137
REMARK   46  A    between atoms: _136  and  _139
REMARK   47  A    between atoms: _139  and  _140
REMARK   48  A    between atoms: _145  and  _147
REMARK   49  A    between atoms: _147  and  _148
REMARK   50  A    between atoms: _147  and  _150
REMARK   51  A    between atoms: _150  and  _151
REMARK   52  A    between atoms: _151  and  _152
REMARK   53  A    between atoms: _155  and  _157
REMARK   54  A    between atoms: _157  and  _158
REMARK   55  A    between atoms: _157  and  _160
REMARK   56  A    between atoms: _160  and  _161
REMARK   57  A    between atoms: _161  and  _162
REMARK   58  A    between atoms: _162  and  _163
REMARK   59  A    between atoms: _172  and  _174
REMARK   60  A    between atoms: _174  and  _175
REMARK   61  A    between atoms: _177  and  _179
REMARK   62  A    between atoms: _179  and  _180
REMARK   63  A    between atoms: _179  and  _182
REMARK   64  A    between atoms: _182  and  _183
REMARK   65  A    between atoms: _183  and  _184
REMARK   66  A    between atoms: _187  and  _189
REMARK   67  A    between atoms: _189  and  _190
REMARK   68  A    between atoms: _189  and  _192
REMARK   69  A    between atoms: _192  and  _193
REMARK   70  A    between atoms: _198  and  _200
REMARK   71  A    between atoms: _200  and  _201
REMARK   72  A    between atoms: _200  and  _203
REMARK   73  A    between atoms: _203  and  _204
REMARK   74  A    between atoms: _204  and  _205
REMARK   75  A    between atoms: _207  and  _209
REMARK   76  A    between atoms: _209  and  _210
REMARK   77  A    between atoms: _209  and  _212
REMARK   78  A    between atoms: _212  and  _213
REMARK   79  A    between atoms: _223  and  _225
REMARK   80  A    between atoms: _225  and  _226
REMARK   81  A    between atoms: _225  and  _228
REMARK   82  A    between atoms: _228  and  _229
REMARK   83  A    between atoms: _229  and  _230
REMARK   84  A    between atoms: _230  and  _231
REMARK   85  A    between atoms: _240  and  _242
REMARK   86  A    between atoms: _242  and  _243
REMARK   87  A    between atoms: _242  and  _245
REMARK   88  A    between atoms: _245  and  _246
REMARK   89  A    between atoms: _251  and  _253
REMARK   90  A    between atoms: _253  and  _254
REMARK   91  A    between atoms: _253  and  _256
REMARK   92  A    between atoms: _256  and  _257
REMARK   93  A    between atoms: _267  and  _269
REMARK   94  A    between atoms: _269  and  _270
REMARK   95  A    between atoms: _269  and  _272
REMARK   96  A    between atoms: _272  and  _273
REMARK   97  A    between atoms: _273  and  _274
REMARK   98  A    between atoms: _277  and  _279
REMARK   99  A    between atoms: _279  and  _280
REMARK  100  A    between atoms: _279  and  _282
REMARK  101  A    between atoms: _282  and  _283
REMARK  102  A    between atoms: _283  and  _284
REMARK  103  A    between atoms: _287  and  _289
REMARK  104  A    between atoms: _289  and  _290
REMARK  105  A    between atoms: _289  and  _292
REMARK  106  A    between atoms: _292  and  _293
REMARK  107  A    between atoms: _299  and  _301
REMARK  108  A    between atoms: _301  and  _302
REMARK  109  A    between atoms: _304  and  _306
REMARK  110  A    between atoms: _306  and  _307
REMARK  111  A    between atoms: _306  and  _309
REMARK  112  A    between atoms: _309  and  _310
REMARK  113  A    between atoms: _320  and  _322
REMARK  114  A    between atoms: _322  and  _323
REMARK  115  A    between atoms: _326  and  _328
REMARK  116  A    between atoms: _328  and  _329
REMARK  117  A    between atoms: _331  and  _333
REMARK  118  A    between atoms: _333  and  _334
REMARK  119  A    between atoms: _333  and  _336
REMARK  120  A    between atoms: _336  and  _337
REMARK  121  A    between atoms: _341  and  _342
REMARK  122  A    between atoms: _348  and  _349
REMARK  123  A    between atoms: _354  and  _356
REMARK  124  A    between atoms: _356  and  _357
REMARK  125  A    between atoms: _356  and  _359
REMARK  126  A    between atoms: _359  and  _360
REMARK  127  A    between atoms: _360  and  _361
REMARK  128  A    between atoms: _366  and  _368
REMARK  129  A    between atoms: _368  and  _369
REMARK  130  A    between atoms: _368  and  _371
REMARK  131  A    between atoms: _371  and  _372
REMARK  132  A    between atoms: _372  and  _373
REMARK  133  A    between atoms: _376  and  _378
REMARK  134  A    between atoms: _378  and  _379
REMARK  135  A    between atoms: _378  and  _381
REMARK  136  A    between atoms: _381  and  _382
REMARK  137  A    between atoms: _382  and  _383
REMARK  138  A    between atoms: _385  and  _387
REMARK  139  A    between atoms: _387  and  _388
REMARK  140  A    between atoms: _387  and  _390
REMARK  141  A    between atoms: _390  and  _391
REMARK  142  A    between atoms: _396  and  _397
REMARK                            x       y       z     vdW  Elec       q    Type
REMARK                         _______ _______ _______ _____ _____    ______ ____
ROOT
ATOM      1  CB  ASN A   1      73.915  20.912  30.356  0.00  0.00    +0.110 C 
ENDROOT
BRANCH   1   2
ATOM      2  CG  ASN A   1      74.149  20.131  29.091  0.00  0.00    +0.221 C 
ATOM      3  ND2 ASN A   1      75.410  20.125  28.612  0.00  0.00    -0.329 N 
ATOM      4 HD21 ASN A   1      76.160  20.641  29.115  0.00  0.00    +0.145 HD
ATOM      5 HD22 ASN A   1      75.632  19.604  27.740  0.00  0.00    +0.145 HD
ATOM      6  OD1 ASN A   1      73.210  19.530  28.530  0.00  0.00    -0.275 OA
ENDBRANCH   1   2
BRANCH   1   7
ATOM      7  CA  ASN A   1      73.566  22.385  30.091  0.00  0.00    +0.142 C 
BRANCH   7   8
ATOM      8  N   ASN A   1      74.726  23.168  29.766  0.00  0.00    -0.239 NA
ATOM      9  H   ASN A   1      75.630  22.917  30.215  0.00  0.00    +0.142 HD
ENDBRANCH   7   8
BRANCH   7  10
ATOM     10  C   ASN A   1      73.001  22.971  31.352  0.00  0.00    +0.225 C 
ATOM     11  O   ASN A   1      73.740  23.222  32.326  0.00  0.00    -0.287 OA
ENDBRANCH   7  10
ENDBRANCH   1   7
TORSDOF 4
REMARK  Name = ../refined-set-2016/1uz4/1uz4_pocket.pdb
REMARK  142 active torsions:
REMARK  status: ('A' for Active; 'I' for Inactive)
REMARK    1  A    between atoms: _1  and  _3
REMARK    2  A    between atoms: _3  and  _4
REMARK    3  A    between atoms: _3  and  _6
REMARK    4  A    between atoms: _6  and  _7
REMARK    5  A    between atoms: _12  and  _14
REMARK    6  A    between atoms: _14  and  _15
REMARK    7  A    between atoms: _14  and  _17
REMARK    8  A    between atoms: _17  and  _18
REMARK    9  A    between atoms: _28  and  _30
REMARK   10  A    between atoms: _30  and  _31
REMARK   11  A    between atoms: _30  and  _33
REMARK   12  A    between atoms: _34  and  _35
REMARK   13  A    between atoms: _35  and  _36
REMARK   14  A    between atoms: _45  and  _47
REMARK   15  A    between atoms: _47  and  _48
REMARK   16  A    between atoms: _47  and  _50
REMARK   17  A    between atoms: _50  and  _51
REMARK   18  A    between atoms: _56  and  _57
REMARK   19  A    between atoms: _59  and  _61
REMARK   20  A    between atoms: _61  and  _62
REMARK   21  A    between atoms: _61  and  _64
REMARK   22  A    between atoms: _64  and  _65
REMARK   23  A    between atoms: _70  and  _72
REMARK   24  A    between atoms: _72  and  _73
REMARK   25  A    between atoms: _72  and  _75
REMARK   26  A    between atoms: _75  and  _76
REMARK   27  A    between atoms: _82  and  _84
REMARK   28  A    between atoms: _84  and  _85
REMARK   29  A    between atoms: _84  and  _87
REMARK   30  A    between atoms: _87  and  _88
REMARK   31  A    between atoms: _98  and  _100
REMARK   32  A    between atoms: _100  and  _101
REMARK   33  A    between atoms: _100  and  _103
REMARK   34  A    between atoms: _103  and  _104
REMARK   35  A    between atoms: _104  and  _105
REMARK   36  A    between atoms: _110  and  _112
REMARK   37  A    between atoms: _112  and  _113
REMARK   38  A    between atoms: _112  and  _115
REMARK   39  A    between atoms: _115  and  _116
REMARK   40  A    between atoms: _126  and  _128
REMARK   41  A    between atoms: _128  and  _129
REMARK   42  A    between atoms: _128  and  _131
REMARK   43  A    between atoms: _131  and  _132
REMARK   44  A    between atoms: _134  and  _136
REMARK   45  A    between atoms: _136  and  _137
REMARK   46  A    between atoms: _136  and  _139
REMARK   47  A    between atoms: _139  and  _140
REMARK   48  A    between atoms: _145  and  _147
REMARK   49  A    between atoms: _147  and  _148
REMARK   50  A    between atoms: _147  and  _150
REMARK   51  A    between atoms: _150  and  _151
REMARK   52  A    between atoms: _151  and  _152
REMARK   53  A    between atoms: _155  and  _157
REMARK   54  A    between atoms: _157  and  _158
REMARK   55  A    between atoms: _157  and  _160
REMARK   56  A    between atoms: _160  and  _161
REMARK   57  A    between atoms: _161  and  _162
REMARK   58  A    between atoms: _162  and  _163
REMARK   59  A    between atoms: _172  and  _174
REMARK   60  A    between atoms: _174  and  _175
REMARK   61  A    between atoms: _177  and  _179
REMARK   62  A    between atoms: _179  and  _180
REMARK   63  A    between atoms: _179  and  _182
REMARK   64  A    between atoms: _182  and  _183
REMARK   65  A    between atoms: _183  and  _184
REMARK   66  A    between atoms: _187  and  _189
REMARK   67  A    between atoms: _189  and  _190
REMARK   68  A    between atoms: _189  and  _192
REMARK   69  A    between atoms: _192  and  _193
REMARK   70  A    between atoms: _198  and  _200
REMARK   71  A    between atoms: _200  and  _201
REMARK   72  A    between atoms: _200  and  _203
REMARK   73  A    between atoms: _203  and  _204
REMARK   74  A    between atoms: _204  and  _205
REMARK   75  A    between atoms: _207  and  _209
REMARK   76  A    between atoms: _209  and  _210
REMARK   77  A    between atoms: _209  and  _212
REMARK   78  A    between atoms: _212  and  _213
REMARK   79  A    between atoms: _223  and  _225
REMARK   80  A    between atoms: _225  and  _226
REMARK   81  A    between atoms: _225  and  _228
REMARK   82  A    between atoms: _228  and  _229
REMARK   83  A    between atoms: _229  and  _230
REMARK   84  A    between atoms: _230  and  _231
REMARK   85  A    between atoms: _240  and  _242
REMARK   86  A    between atoms: _242  and  _243
REMARK   87  A    between atoms: _242  and  _245
REMARK   88  A    between atoms: _245  and  _246
REMARK   89  A    between atoms: _251  and  _253
REMARK   90  A    between atoms: _253  and  _254
REMARK   91  A    between atoms: _253  and  _256
REMARK   92  A    between atoms: _256  and  _257
REMARK   93  A    between atoms: _267  and  _269
REMARK   94  A    between atoms: _269  and  _270
REMARK   95  A    between atoms: _269  and  _272
REMARK   96  A    between atoms: _272  and  _273
REMARK   97  A    between atoms: _273  and  _274
REMARK   98  A    between atoms: _277  and  _279
REMARK   99  A    between atoms: _279  and  _280
REMARK  100  A    between atoms: _279  and  _282
REMARK  101  A    between atoms: _282  and  _283
REMARK  102  A    between atoms: _283  and  _284
REMARK  103  A    between atoms: _287  and  _289
REMARK  104  A    between atoms: _289  and  _290
REMARK  105  A    between atoms: _289  and  _292
REMARK  106  A    between atoms: _292  and  _293
REMARK  107  A    between atoms: _299  and  _301
REMARK  108  A    between atoms: _301  and  _302
REMARK  109  A    between atoms: _304  and  _306
REMARK  110  A    between atoms: _306  and  _307
REMARK  111  A    between atoms: _306  and  _309
REMARK  112  A    between atoms: _309  and  _310
REMARK  113  A    between atoms: _320  and  _322
REMARK  114  A    between atoms: _322  and  _323
REMARK  115  A    between atoms: _326  and  _328
REMARK  116  A    between atoms: _328  and  _329
REMARK  117  A    between atoms: _331  and  _333
REMARK  118  A    between atoms: _333  and  _334
REMARK  119  A    between atoms: _333  and  _336
REMARK  120  A    between atoms: _336  and  _337
REMARK  121  A    between atoms: _341  and  _342
REMARK  122  A    between atoms: _348  and  _349
REMARK  123  A    between atoms: _354  and  _356
REMARK  124  A    between atoms: _356  and  _357
REMARK  125  A    between atoms: _356  and  _359
REMARK  126  A    between atoms: _359  and  _360
REMARK  127  A    between atoms: _360  and  _361
REMARK  128  A    between atoms: _366  and  _368
REMARK  129  A    between atoms: _368  and  _369
REMARK  130  A    between atoms: _368  and  _371
REMARK  131  A    between atoms: _371  and  _372
REMARK  132  A    between atoms: _372  and  _373
REMARK  133  A    between atoms: _376  and  _378
REMARK  134  A    between atoms: _378  and  _379
REMARK  135  A    between atoms: _378  and  _381
REMARK  136  A    between atoms: _381  and  _382
REMARK  137  A    between atoms: _382  and  _383
REMARK  138  A    between atoms: _385  and  _387
REMARK  139  A    between atoms: _387  and  _388
REMARK  140  A    between atoms: _387  and  _390
REMARK  141  A    between atoms: _390  and  _391
REMARK  142  A    between atoms: _396  and  _397
REMARK                            x       y       z     vdW  Elec       q    Type
REMARK                         _______ _______ _______ _____ _____    ______ ____
ROOT
ATOM      1  CG  TRP A   1      68.494  19.450  34.367  0.00  0.00    -0.002 A 
ATOM      2  CD2 TRP A   1      67.329  19.322  35.215  0.00  0.00    +0.013 A 
ATOM      3  CE2 TRP A   1      67.785  19.345  36.545  0.00  0.00    +0.056 A 
ATOM      4  CZ2 TRP A   1      66.930  19.307  37.623  0.00  0.00    +0.017 A 
ATOM      5  CH2 TRP A   1      65.602  19.211  37.372  0.00  0.00    +0.001 A 
ATOM      6  CZ3 TRP A   1      65.113  19.187  36.067  0.00  0.00    +0.000 A 
ATOM      7  NE1 TRP A   1      69.138  19.417  36.499  0.00  0.00    -0.352 N 
ATOM      8  HE1 TRP A   1      69.766  19.419  37.328  0.00  0.00    +0.166 HD
ATOM      9  CE3 TRP A   1      65.955  19.259  34.993  0.00  0.00    +0.001 A 
ATOM     10  CD1 TRP A   1      69.554  19.487  35.191  0.00  0.00    +0.068 A 
ENDROOT
BRANCH   1  11
ATOM     11  CB  TRP A   1      68.535  19.516  32.896  0.00  0.00    +0.053 C 
BRANCH  11  12
ATOM     12  CA  TRP A   1      68.382  20.964  32.364  0.00  0.00    +0.137 C 
BRANCH  12  13
ATOM     13  N   TRP A   1      69.528  21.801  32.654  0.00  0.00    -0.239 NA
ATOM     14  H   TRP A   1      70.338  21.391  33.162  0.00  0.00    +0.142 HD
ENDBRANCH  12  13
BRANCH  12  15
ATOM     15  C   TRP A   1      67.069  21.589  32.889  0.00  0.00    +0.224 C 
ATOM     16  O   TRP A   1      66.019  21.434  32.246  0.00  0.00    -0.287 OA
ENDBRANCH  12  15
ENDBRANCH  11  12
ENDBRANCH   1  11
TORSDOF 4
REMARK  Name = ../refined-set-2016/1uz4/1uz4_pocket.pdb
REMARK  142 active torsions:
REMARK  status: ('A' for Active; 'I' for Inactive)
REMARK    1  A    between atoms: _1  and  _3
REMARK    2  A    between atoms: _3  and  _4
REMARK    3  A    between atoms: _3  and  _6
REMARK    4  A    between atoms: _6  and  _7
REMARK    5  A    between atoms: _12  and  _14
REMARK    6  A    between atoms: _14  and  _15
REMARK    7  A    between atoms: _14  and  _17
REMARK    8  A    between atoms: _17  and  _18
REMARK    9  A    between atoms: _28  and  _30
REMARK   10  A    between atoms: _30  and  _31
REMARK   11  A    between atoms: _30  and  _33
REMARK   12  A    between atoms: _34  and  _35
REMARK   13  A    between atoms: _35  and  _36
REMARK   14  A    between atoms: _45  and  _47
REMARK   15  A    between atoms: _47  and  _48
REMARK   16  A    between atoms: _47  and  _50
REMARK   17  A    between atoms: _50  and  _51
REMARK   18  A    between atoms: _56  and  _57
REMARK   19  A    between atoms: _59  and  _61
REMARK   20  A    between atoms: _61  and  _62
REMARK   21  A    between atoms: _61  and  _64
REMARK   22  A    between atoms: _64  and  _65
REMARK   23  A    between atoms: _70  and  _72
REMARK   24  A    between atoms: _72  and  _73
REMARK   25  A    between atoms: _72  and  _75
REMARK   26  A    between atoms: _75  and  _76
REMARK   27  A    between atoms: _82  and  _84
REMARK   28  A    between atoms: _84  and  _85
REMARK   29  A    between atoms: _84  and  _87
REMARK   30  A    between atoms: _87  and  _88
REMARK   31  A    between atoms: _98  and  _100
REMARK   32  A    between atoms: _100  and  _101
REMARK   33  A    between atoms: _100  and  _103
REMARK   34  A    between atoms: _103  and  _104
REMARK   35  A    between atoms: _104  and  _105
REMARK   36  A    between atoms: _110  and  _112
REMARK   37  A    between atoms: _112  and  _113
REMARK   38  A    between atoms: _112  and  _115
REMARK   39  A    between atoms: _115  and  _116
REMARK   40  A    between atoms: _126  and  _128
REMARK   41  A    between atoms: _128  and  _129
REMARK   42  A    between atoms: _128  and  _131
REMARK   43  A    between atoms: _131  and  _132
REMARK   44  A    between atoms: _134  and  _136
REMARK   45  A    between atoms: _136  and  _137
REMARK   46  A    between atoms: _136  and  _139
REMARK   47  A    between atoms: _139  and  _140
REMARK   48  A    between atoms: _145  and  _147
REMARK   49  A    between atoms: _147  and  _148
REMARK   50  A    between atoms: _147  and  _150
REMARK   51  A    between atoms: _150  and  _151
REMARK   52  A    between atoms: _151  and  _152
REMARK   53  A    between atoms: _155  and  _157
REMARK   54  A    between atoms: _157  and  _158
REMARK   55  A    between atoms: _157  and  _160
REMARK   56  A    between atoms: _160  and  _161
REMARK   57  A    between atoms: _161  and  _162
REMARK   58  A    between atoms: _162  and  _163
REMARK   59  A    between atoms: _172  and  _174
REMARK   60  A    between atoms: _174  and  _175
REMARK   61  A    between atoms: _177  and  _179
REMARK   62  A    between atoms: _179  and  _180
REMARK   63  A    between atoms: _179  and  _182
REMARK   64  A    between atoms: _182  and  _183
REMARK   65  A    between atoms: _183  and  _184
REMARK   66  A    between atoms: _187  and  _189
REMARK   67  A    between atoms: _189  and  _190
REMARK   68  A    between atoms: _189  and  _192
REMARK   69  A    between atoms: _192  and  _193
REMARK   70  A    between atoms: _198  and  _200
REMARK   71  A    between atoms: _200  and  _201
REMARK   72  A    between atoms: _200  and  _203
REMARK   73  A    between atoms: _203  and  _204
REMARK   74  A    between atoms: _204  and  _205
REMARK   75  A    between atoms: _207  and  _209
REMARK   76  A    between atoms: _209  and  _210
REMARK   77  A    between atoms: _209  and  _212
REMARK   78  A    between atoms: _212  and  _213
REMARK   79  A    between atoms: _223  and  _225
REMARK   80  A    between atoms: _225  and  _226
REMARK   81  A    between atoms: _225  and  _228
REMARK   82  A    between atoms: _228  and  _229
REMARK   83  A    between atoms: _229  and  _230
REMARK   84  A    between atoms: _230  and  _231
REMARK   85  A    between atoms: _240  and  _242
REMARK   86  A    between atoms: _242  and  _243
REMARK   87  A    between atoms: _242  and  _245
REMARK   88  A    between atoms: _245  and  _246
REMARK   89  A    between atoms: _251  and  _253
REMARK   90  A    between atoms: _253  and  _254
REMARK   91  A    between atoms: _253  and  _256
REMARK   92  A    between atoms: _256  and  _257
REMARK   93  A    between atoms: _267  and  _269
REMARK   94  A    between atoms: _269  and  _270
REMARK   95  A    between atoms: _269  and  _272
REMARK   96  A    between atoms: _272  and  _273
REMARK   97  A    between atoms: _273  and  _274
REMARK   98  A    between atoms: _277  and  _279
REMARK   99  A    between atoms: _279  and  _280
REMARK  100  A    between atoms: _279  and  _282
REMARK  101  A    between atoms: _282  and  _283
REMARK  102  A    between atoms: _283  and  _284
REMARK  103  A    between atoms: _287  and  _289
REMARK  104  A    between atoms: _289  and  _290
REMARK  105  A    between atoms: _289  and  _292
REMARK  106  A    between atoms: _292  and  _293
REMARK  107  A    between atoms: _299  and  _301
REMARK  108  A    between atoms: _301  and  _302
REMARK  109  A    between atoms: _304  and  _306
REMARK  110  A    between atoms: _306  and  _307
REMARK  111  A    between atoms: _306  and  _309
REMARK  112  A    between atoms: _309  and  _310
REMARK  113  A    between atoms: _320  and  _322
REMARK  114  A    between atoms: _322  and  _323
REMARK  115  A    between atoms: _326  and  _328
REMARK  116  A    between atoms: _328  and  _329
REMARK  117  A    between atoms: _331  and  _333
REMARK  118  A    between atoms: _333  and  _334
REMARK  119  A    between atoms: _333  and  _336
REMARK  120  A    between atoms: _336  and  _337
REMARK  121  A    between atoms: _341  and  _342
REMARK  122  A    between atoms: _348  and  _349
REMARK  123  A    between atoms: _354  and  _356
REMARK  124  A    between atoms: _356  and  _357
REMARK  125  A    between atoms: _356  and  _359
REMARK  126  A    between atoms: _359  and  _360
REMARK  127  A    between atoms: _360  and  _361
REMARK  128  A    between atoms: _366  and  _368
REMARK  129  A    between atoms: _368  and  _369
REMARK  130  A    between atoms: _368  and  _371
REMARK  131  A    between atoms: _371  and  _372
REMARK  132  A    between atoms: _372  and  _373
REMARK  133  A    between atoms: _376  and  _378
REMARK  134  A    between atoms: _378  and  _379
REMARK  135  A    between atoms: _378  and  _381
REMARK  136  A    between atoms: _381  and  _382
REMARK  137  A    between atoms: _382  and  _383
REMARK  138  A    between atoms: _385  and  _387
REMARK  139  A    between atoms: _387  and  _388
REMARK  140  A    between atoms: _387  and  _390
REMARK  141  A    between atoms: _390  and  _391
REMARK  142  A    between atoms: _396  and  _397
REMARK                            x       y       z     vdW  Elec       q    Type
REMARK                         _______ _______ _______ _____ _____    ______ ____
ROOT
ATOM      1  NE  ARG A   1      71.572  17.932  25.080  0.00  0.00    -0.261 N 
ATOM      2  CZ  ARG A   1      71.608  16.962  25.978  0.00  0.00    +0.342 C 
ATOM      3  NH2 ARG A   1      72.199  17.155  27.143  0.00  0.00    -0.292 N 
ATOM      4 HH21 ARG A   1      72.225  16.389  27.846  0.00  0.00    +0.255 HD
ATOM      5 HH22 ARG A   1      72.639  18.073  27.357  0.00  0.00    +0.255 HD
ATOM      6  NH1 ARG A   1      71.132  15.771  25.694  0.00  0.00    -0.292 N 
ATOM      7 HH11 ARG A   1      71.165  15.014  26.407  0.00  0.00    +0.255 HD
ATOM      8 HH12 ARG A   1      70.722  15.585  24.756  0.00  0.00    +0.255 HD
ATOM      9  HE  ARG A   1      71.127  17.727  24.163  0.00  0.00    +0.259 HD
ENDROOT
BRANCH   1  10
ATOM     10  CD  ARG A   1      72.114  19.270  25.289  0.00  0.00    +0.200 C 
BRANCH  10  12
ATOM     11  CB  ARG A   1      71.616  21.596  26.214  0.00  0.00    -0.003 C 
ATOM     12  CG  ARG A   1      71.119  20.190  25.907  0.00  0.00    +0.014 C 
BRANCH  11  13
ATOM     13  CA  ARG A   1      70.545  22.631  26.459  0.00  0.00    +0.155 C 
BRANCH  13  14
ATOM     14  N   ARG A   1      71.169  23.908  26.769  0.00  0.00    -0.235 NA
ATOM     15  H   ARG A   1      71.882  23.955  27.525  0.00  0.00    +0.142 HD
ENDBRANCH  13  14
BRANCH  13  16
ATOM     16  C   ARG A   1      69.639  22.274  27.682  0.00  0.00    +0.229 C 
ATOM     17  O   ARG A   1      70.107  22.211  28.834  0.00  0.00    -0.286 OA
ENDBRANCH  13  16
ENDBRANCH  11  13
ENDBRANCH  10  12
ENDBRANCH   1  10
TORSDOF 5
REMARK  Name = ../refined-set-2016/1uz4/1uz4_pocket.pdb
REMARK  142 active torsions:
REMARK  status: ('A' for Active; 'I' for Inactive)
REMARK    1  A    between atoms: _1  and  _3
REMARK    2  A    between atoms: _3  and  _4
REMARK    3  A    between atoms: _3  and  _6
REMARK    4  A    between atoms: _6  and  _7
REMARK    5  A    between atoms: _12  and  _14
REMARK    6  A    between atoms: _14  and  _15
REMARK    7  A    between atoms: _14  and  _17
REMARK    8  A    between atoms: _17  and  _18
REMARK    9  A    between atoms: _28  and  _30
REMARK   10  A    between atoms: _30  and  _31
REMARK   11  A    between atoms: _30  and  _33
REMARK   12  A    between atoms: _34  and  _35
REMARK   13  A    between atoms: _35  and  _36
REMARK   14  A    between atoms: _45  and  _47
REMARK   15  A    between atoms: _47  and  _48
REMARK   16  A    between atoms: _47  and  _50
REMARK   17  A    between atoms: _50  and  _51
REMARK   18  A    between atoms: _56  and  _57
REMARK   19  A    between atoms: _59  and  _61
REMARK   20  A    between atoms: _61  and  _62
REMARK   21  A    between atoms: _61  and  _64
REMARK   22  A    between atoms: _64  and  _65
REMARK   23  A    between atoms: _70  and  _72
REMARK   24  A    between atoms: _72  and  _73
REMARK   25  A    between atoms: _72  and  _75
REMARK   26  A    between atoms: _75  and  _76
REMARK   27  A    between atoms: _82  and  _84
REMARK   28  A    between atoms: _84  and  _85
REMARK   29  A    between atoms: _84  and  _87
REMARK   30  A    between atoms: _87  and  _88
REMARK   31  A    between atoms: _98  and  _100
REMARK   32  A    between atoms: _100  and  _101
REMARK   33  A    between atoms: _100  and  _103
REMARK   34  A    between atoms: _103  and  _104
REMARK   35  A    between atoms: _104  and  _105
REMARK   36  A    between atoms: _110  and  _112
REMARK   37  A    between atoms: _112  and  _113
REMARK   38  A    between atoms: _112  and  _115
REMARK   39  A    between atoms: _115  and  _116
REMARK   40  A    between atoms: _126  and  _128
REMARK   41  A    between atoms: _128  and  _129
REMARK   42  A    between atoms: _128  and  _131
REMARK   43  A    between atoms: _131  and  _132
REMARK   44  A    between atoms: _134  and  _136
REMARK   45  A    between atoms: _136  and  _137
REMARK   46  A    between atoms: _136  and  _139
REMARK   47  A    between atoms: _139  and  _140
REMARK   48  A    between atoms: _145  and  _147
REMARK   49  A    between atoms: _147  and  _148
REMARK   50  A    between atoms: _147  and  _150
REMARK   51  A    between atoms: _150  and  _151
REMARK   52  A    between atoms: _151  and  _152
REMARK   53  A    between atoms: _155  and  _157
REMARK   54  A    between atoms: _157  and  _158
REMARK   55  A    between atoms: _157  and  _160
REMARK   56  A    between atoms: _160  and  _161
REMARK   57  A    between atoms: _161  and  _162
REMARK   58  A    between atoms: _162  and  _163
REMARK   59  A    between atoms: _172  and  _174
REMARK   60  A    between atoms: _174  and  _175
REMARK   61  A    between atoms: _177  and  _179
REMARK   62  A    between atoms: _179  and  _180
REMARK   63  A    between atoms: _179  and  _182
REMARK   64  A    between atoms: _182  and  _183
REMARK   65  A    between atoms: _183  and  _184
REMARK   66  A    between atoms: _187  and  _189
REMARK   67  A    between atoms: _189  and  _190
REMARK   68  A    between atoms: _189  and  _192
REMARK   69  A    between atoms: _192  and  _193
REMARK   70  A    between atoms: _198  and  _200
REMARK   71  A    between atoms: _200  and  _201
REMARK   72  A    between atoms: _200  and  _203
REMARK   73  A    between atoms: _203  and  _204
REMARK   74  A    between atoms: _204  and  _205
REMARK   75  A    between atoms: _207  and  _209
REMARK   76  A    between atoms: _209  and  _210
REMARK   77  A    between atoms: _209  and  _212
REMARK   78  A    between atoms: _212  and  _213
REMARK   79  A    between atoms: _223  and  _225
REMARK   80  A    between atoms: _225  and  _226
REMARK   81  A    between atoms: _225  and  _228
REMARK   82  A    between atoms: _228  and  _229
REMARK   83  A    between atoms: _229  and  _230
REMARK   84  A    between atoms: _230  and  _231
REMARK   85  A    between atoms: _240  and  _242
REMARK   86  A    between atoms: _242  and  _243
REMARK   87  A    between atoms: _242  and  _245
REMARK   88  A    between atoms: _245  and  _246
REMARK   89  A    between atoms: _251  and  _253
REMARK   90  A    between atoms: _253  and  _254
REMARK   91  A    between atoms: _253  and  _256
REMARK   92  A    between atoms: _256  and  _257
REMARK   93  A    between atoms: _267  and  _269
REMARK   94  A    between atoms: _269  and  _270
REMARK   95  A    between atoms: _269  and  _272
REMARK   96  A    between atoms: _272  and  _273
REMARK   97  A    between atoms: _273  and  _274
REMARK   98  A    between atoms: _277  and  _279
REMARK   99  A    between atoms: _279  and  _280
REMARK  100  A    between atoms: _279  and  _282
REMARK  101  A    between atoms: _282  and  _283
REMARK  102  A    between atoms: _283  and  _284
REMARK  103  A    between atoms: _287  and  _289
REMARK  104  A    between atoms: _289  and  _290
REMARK  105  A    between atoms: _289  and  _292
REMARK  106  A    between atoms: _292  and  _293
REMARK  107  A    between atoms: _299  and  _301
REMARK  108  A    between atoms: _301  and  _302
REMARK  109  A    between atoms: _304  and  _306
REMARK  110  A    between atoms: _306  and  _307
REMARK  111  A    between atoms: _306  and  _309
REMARK  112  A    between atoms: _309  and  _310
REMARK  113  A    between atoms: _320  and  _322
REMARK  114  A    between atoms: _322  and  _323
REMARK  115  A    between atoms: _326  and  _328
REMARK  116  A    between atoms: _328  and  _329
REMARK  117  A    between atoms: _331  and  _333
REMARK  118  A    between atoms: _333  and  _334
REMARK  119  A    between atoms: _333  and  _336
REMARK  120  A    between atoms: _336  and  _337
REMARK  121  A    between atoms: _341  and  _342
REMARK  122  A    between atoms: _348  and  _349
REMARK  123  A    between atoms: _354  and  _356
REMARK  124  A    between atoms: _356  and  _357
REMARK  125  A    between atoms: _356  and  _359
REMARK  126  A    between atoms: _359  and  _360
REMARK  127  A    between atoms: _360  and  _361
REMARK  128  A    between atoms: _366  and  _368
REMARK  129  A    between atoms: _368  and  _369
REMARK  130  A    between atoms: _368  and  _371
REMARK  131  A    between atoms: _371  and  _372
REMARK  132  A    between atoms: _372  and  _373
REMARK  133  A    between atoms: _376  and  _378
REMARK  134  A    between atoms: _378  and  _379
REMARK  135  A    between atoms: _378  and  _381
REMARK  136  A    between atoms: _381  and  _382
REMARK  137  A    between atoms: _382  and  _383
REMARK  138  A    between atoms: _385  and  _387
REMARK  139  A    between atoms: _387  and  _388
REMARK  140  A    between atoms: _387  and  _390
REMARK  141  A    between atoms: _390  and  _391
REMARK  142  A    between atoms: _396  and  _397
REMARK                            x       y       z     vdW  Elec       q    Type
REMARK                         _______ _______ _______ _____ _____    ______ ____
ROOT
ATOM      1  CG  TYR A   1      66.945  16.933  26.276  0.00  0.00    -0.020 A 
ATOM      2  CD2 TYR A   1      66.606  16.192  27.380  0.00  0.00    -0.001 A 
ATOM      3  CE2 TYR A   1      67.185  16.444  28.616  0.00  0.00    +0.036 A 
ATOM      4  CZ  TYR A   1      68.084  17.496  28.761  0.00  0.00    +0.134 A 
ATOM      5  CE1 TYR A   1      68.427  18.244  27.668  0.00  0.00    +0.036 A 
ATOM      6  CD1 TYR A   1      67.856  17.977  26.444  0.00  0.00    -0.001 A 
ENDROOT
BRANCH   4   7
ATOM      7  OH  TYR A   1      68.654  17.786  29.971  0.00  0.00    -0.506 OA
ATOM      8  HH  TYR A   1      69.637  17.690  29.903  0.00  0.00    +0.292 HD
ENDBRANCH   4   7
BRANCH   1   9
ATOM      9  CB  TYR A   1      66.391  16.598  24.903  0.00  0.00    +0.051 C 
BRANCH   9  10
ATOM     10  CA  TYR A   1      65.158  17.378  24.409  0.00  0.00    +0.137 C 
BRANCH  10  11
ATOM     11  N   TYR A   1      65.310  18.832  24.585  0.00  0.00    -0.239 NA
ATOM     12  H   TYR A   1      65.618  19.203  25.506  0.00  0.00    +0.142 HD
ENDBRANCH  10  11
BRANCH  10  13
ATOM     13  C   TYR A   1      63.879  16.845  25.048  0.00  0.00    +0.224 C 
ATOM     14  O   TYR A   1      63.460  17.335  26.103  0.00  0.00    -0.287 OA
ENDBRANCH  10  13
ENDBRANCH   9  10
ENDBRANCH   1   9
TORSDOF 5
REMARK  Name = ../refined-set-2016/1uz4/1uz4_pocket.pdb
REMARK  142 active torsions:
REMARK  status: ('A' for Active; 'I' for Inactive)
REMARK    1  A    between atoms: _1  and  _3
REMARK    2  A    between atoms: _3  and  _4
REMARK    3  A    between atoms: _3  and  _6
REMARK    4  A    between atoms: _6  and  _7
REMARK    5  A    between atoms: _12  and  _14
REMARK    6  A    between atoms: _14  and  _15
REMARK    7  A    between atoms: _14  and  _17
REMARK    8  A    between atoms: _17  and  _18
REMARK    9  A    between atoms: _28  and  _30
REMARK   10  A    between atoms: _30  and  _31
REMARK   11  A    between atoms: _30  and  _33
REMARK   12  A    between atoms: _34  and  _35
REMARK   13  A    between atoms: _35  and  _36
REMARK   14  A    between atoms: _45  and  _47
REMARK   15  A    between atoms: _47  and  _48
REMARK   16  A    between atoms: _47  and  _50
REMARK   17  A    between atoms: _50  and  _51
REMARK   18  A    between atoms: _56  and  _57
REMARK   19  A    between atoms: _59  and  _61
REMARK   20  A    between atoms: _61  and  _62
REMARK   21  A    between atoms: _61  and  _64
REMARK   22  A    between atoms: _64  and  _65
REMARK   23  A    between atoms: _70  and  _72
REMARK   24  A    between atoms: _72  and  _73
REMARK   25  A    between atoms: _72  and  _75
REMARK   26  A    between atoms: _75  and  _76
REMARK   27  A    between atoms: _82  and  _84
REMARK   28  A    between atoms: _84  and  _85
REMARK   29  A    between atoms: _84  and  _87
REMARK   30  A    between atoms: _87  and  _88
REMARK   31  A    between atoms: _98  and  _100
REMARK   32  A    between atoms: _100  and  _101
REMARK   33  A    between atoms: _100  and  _103
REMARK   34  A    between atoms: _103  and  _104
REMARK   35  A    between atoms: _104  and  _105
REMARK   36  A    between atoms: _110  and  _112
REMARK   37  A    between atoms: _112  and  _113
REMARK   38  A    between atoms: _112  and  _115
REMARK   39  A    between atoms: _115  and  _116
REMARK   40  A    between atoms: _126  and  _128
REMARK   41  A    between atoms: _128  and  _129
REMARK   42  A    between atoms: _128  and  _131
REMARK   43  A    between atoms: _131  and  _132
REMARK   44  A    between atoms: _134  and  _136
REMARK   45  A    between atoms: _136  and  _137
REMARK   46  A    between atoms: _136  and  _139
REMARK   47  A    between atoms: _139  and  _140
REMARK   48  A    between atoms: _145  and  _147
REMARK   49  A    between atoms: _147  and  _148
REMARK   50  A    between atoms: _147  and  _150
REMARK   51  A    between atoms: _150  and  _151
REMARK   52  A    between atoms: _151  and  _152
REMARK   53  A    between atoms: _155  and  _157
REMARK   54  A    between atoms: _157  and  _158
REMARK   55  A    between atoms: _157  and  _160
REMARK   56  A    between atoms: _160  and  _161
REMARK   57  A    between atoms: _161  and  _162
REMARK   58  A    between atoms: _162  and  _163
REMARK   59  A    between atoms: _172  and  _174
REMARK   60  A    between atoms: _174  and  _175
REMARK   61  A    between atoms: _177  and  _179
REMARK   62  A    between atoms: _179  and  _180
REMARK   63  A    between atoms: _179  and  _182
REMARK   64  A    between atoms: _182  and  _183
REMARK   65  A    between atoms: _183  and  _184
REMARK   66  A    between atoms: _187  and  _189
REMARK   67  A    between atoms: _189  and  _190
REMARK   68  A    between atoms: _189  and  _192
REMARK   69  A    between atoms: _192  and  _193
REMARK   70  A    between atoms: _198  and  _200
REMARK   71  A    between atoms: _200  and  _201
REMARK   72  A    between atoms: _200  and  _203
REMARK   73  A    between atoms: _203  and  _204
REMARK   74  A    between atoms: _204  and  _205
REMARK   75  A    between atoms: _207  and  _209
REMARK   76  A    between atoms: _209  and  _210
REMARK   77  A    between atoms: _209  and  _212
REMARK   78  A    between atoms: _212  and  _213
REMARK   79  A    between atoms: _223  and  _225
REMARK   80  A    between atoms: _225  and  _226
REMARK   81  A    between atoms: _225  and  _228
REMARK   82  A    between atoms: _228  and  _229
REMARK   83  A    between atoms: _229  and  _230
REMARK   84  A    between atoms: _230  and  _231
REMARK   85  A    between atoms: _240  and  _242
REMARK   86  A    between atoms: _242  and  _243
REMARK   87  A    between atoms: _242  and  _245
REMARK   88  A    between atoms: _245  and  _246
REMARK   89  A    between atoms: _251  and  _253
REMARK   90  A    between atoms: _253  and  _254
REMARK   91  A    between atoms: _253  and  _256
REMARK   92  A    between atoms: _256  and  _257
REMARK   93  A    between atoms: _267  and  _269
REMARK   94  A    between atoms: _269  and  _270
REMARK   95  A    between atoms: _269  and  _272
REMARK   96  A    between atoms: _272  and  _273
REMARK   97  A    between atoms: _273  and  _274
REMARK   98  A    between atoms: _277  and  _279
REMARK   99  A    between atoms: _279  and  _280
REMARK  100  A    between atoms: _279  and  _282
REMARK  101  A    between atoms: _282  and  _283
REMARK  102  A    between atoms: _283  and  _284
REMARK  103  A    between atoms: _287  and  _289
REMARK  104  A    between atoms: _289  and  _290
REMARK  105  A    between atoms: _289  and  _292
REMARK  106  A    between atoms: _292  and  _293
REMARK  107  A    between atoms: _299  and  _301
REMARK  108  A    between atoms: _301  and  _302
REMARK  109  A    between atoms: _304  and  _306
REMARK  110  A    between atoms: _306  and  _307
REMARK  111  A    between atoms: _306  and  _309
REMARK  112  A    between atoms: _309  and  _310
REMARK  113  A    between atoms: _320  and  _322
REMARK  114  A    between atoms: _322  and  _323
REMARK  115  A    between atoms: _326  and  _328
REMARK  116  A    between atoms: _328  and  _329
REMARK  117  A    between atoms: _331  and  _333
REMARK  118  A    between atoms: _333  and  _334
REMARK  119  A    between atoms: _333  and  _336
REMARK  120  A    between atoms: _336  and  _337
REMARK  121  A    between atoms: _341  and  _342
REMARK  122  A    between atoms: _348  and  _349
REMARK  123  A    between atoms: _354  and  _356
REMARK  124  A    between atoms: _356  and  _357
REMARK  125  A    between atoms: _356  and  _359
REMARK  126  A    between atoms: _359  and  _360
REMARK  127  A    between atoms: _360  and  _361
REMARK  128  A    between atoms: _366  and  _368
REMARK  129  A    between atoms: _368  and  _369
REMARK  130  A    between atoms: _368  and  _371
REMARK  131  A    between atoms: _371  and  _372
REMARK  132  A    between atoms: _372  and  _373
REMARK  133  A    between atoms: _376  and  _378
REMARK  134  A    between atoms: _378  and  _379
REMARK  135  A    between atoms: _378  and  _381
REMARK  136  A    between atoms: _381  and  _382
REMARK  137  A    between atoms: _382  and  _383
REMARK  138  A    between atoms: _385  and  _387
REMARK  139  A    between atoms: _387  and  _388
REMARK  140  A    between atoms: _387  and  _390
REMARK  141  A    between atoms: _390  and  _391
REMARK  142  A    between atoms: _396  and  _397
REMARK                            x       y       z     vdW  Elec       q    Type
REMARK                         _______ _______ _______ _____ _____    ______ ____
ROOT
ATOM      1  C   TRP A   3      66.595   8.000  33.009  0.00  0.00    +0.241 C 
ATOM      2  N   GLN A   4      66.741   7.875  34.323  0.00  0.00    -0.297 N 
ATOM      3  H   GLN A   4      67.697   7.788  34.724  0.00  0.00    +0.150 HD
ATOM      4  O   TRP A   3      65.565   8.405  32.499  0.00  0.00    -0.273 OA
ENDROOT
BRANCH   1   5
ATOM      5  CA  TRP A   3      67.813   7.666  32.140  0.00  0.00    +0.153 C 
BRANCH   5   7
ATOM      6  C   PHE A   2      67.137   6.896  29.897  0.00  0.00    +0.241 C 
ATOM      7  N   TRP A   3      67.528   7.876  30.713  0.00  0.00    -0.297 N 
ATOM      8  H   TRP A   3      67.636   8.833  30.322  0.00  0.00    +0.150 HD
ATOM      9  O   PHE A   2      66.852   5.733  30.281  0.00  0.00    -0.273 OA
BRANCH   6  10
ATOM     10  CA  PHE A   2      67.092   7.249  28.416  0.00  0.00    +0.153 C 
BRANCH  10  13
ATOM     11  C   ASN A   1      65.577   9.120  28.616  0.00  0.00    +0.239 C 
ATOM     12  O   ASN A   1      64.658   8.398  29.009  0.00  0.00    -0.274 OA
ATOM     13  N   PHE A   2      66.761   8.659  28.253  0.00  0.00    -0.297 N 
ATOM     14  H   PHE A   2      67.464   9.309  27.847  0.00  0.00    +0.150 HD
BRANCH  11  15
ATOM     15  CA  ASN A   1      65.405  10.612  28.574  0.00  0.00    +0.154 C 
BRANCH  15  16
ATOM     16  N   ASN A   1      64.218  10.914  27.788  0.00  0.00    -0.238 NA
ATOM     17  H   ASN A   1      63.487  10.181  27.690  0.00  0.00    +0.142 HD
ENDBRANCH  15  16
BRANCH  15  18
ATOM     18  CB  ASN A   1      65.257  11.167  29.978  0.00  0.00    +0.111 C 
BRANCH  18  19
ATOM     19  CG  ASN A   1      66.612  11.375  30.715  0.00  0.00    +0.221 C 
ATOM     20  ND2 ASN A   1      66.564  12.127  31.828  0.00  0.00    -0.329 N 
ATOM     21 HD21 ASN A   1      67.425  12.277  32.392  0.00  0.00    +0.145 HD
ATOM     22 HD22 ASN A   1      65.666  12.559  32.125  0.00  0.00    +0.145 HD
ATOM     23  OD1 ASN A   1      67.655  10.840  30.319  0.00  0.00    -0.275 OA
ENDBRANCH  18  19
ENDBRANCH  15  18
ENDBRANCH  11  15
ENDBRANCH  10  13
BRANCH  10  24
ATOM     24  CB  PHE A   2      68.435   6.927  27.754  0.00  0.00    +0.055 C 
BRANCH  24  25
ATOM     25  CG  PHE A   2      68.667   5.441  27.538  0.00  0.00    -0.020 A 
ATOM     26  CD2 PHE A   2      69.601   4.734  28.294  0.00  0.00    -0.004 A 
ATOM     27  CE2 PHE A   2      69.768   3.333  28.121  0.00  0.00    -0.000 A 
ATOM     28  CZ  PHE A   2      69.030   2.672  27.149  0.00  0.00    -0.000 A 
ATOM     29  CE1 PHE A   2      68.090   3.377  26.385  0.00  0.00    -0.000 A 
ATOM     30  CD1 PHE A   2      67.912   4.748  26.594  0.00  0.00    -0.004 A 
ENDBRANCH  24  25
ENDBRANCH  10  24
ENDBRANCH   6  10
ENDBRANCH   5   7
BRANCH   5  31
ATOM     31  CB  TRP A   3      69.064   8.447  32.569  0.00  0.00    +0.057 C 
BRANCH  31  32
ATOM     32  CG  TRP A   3      70.263   8.108  31.694  0.00  0.00    -0.002 A 
ATOM     33  CD2 TRP A   3      70.897   6.831  31.544  0.00  0.00    +0.013 A 
ATOM     34  CE3 TRP A   3      70.727   5.573  32.142  0.00  0.00    +0.001 A 
ATOM     35  CZ3 TRP A   3      71.559   4.544  31.779  0.00  0.00    +0.000 A 
ATOM     36  CH2 TRP A   3      72.552   4.724  30.816  0.00  0.00    +0.001 A 
ATOM     37  CZ2 TRP A   3      72.738   5.938  30.206  0.00  0.00    +0.017 A 
ATOM     38  CE2 TRP A   3      71.908   6.973  30.570  0.00  0.00    +0.056 A 
ATOM     39  NE1 TRP A   3      71.891   8.278  30.152  0.00  0.00    -0.352 N 
ATOM     40  HE1 TRP A   3      72.532   8.696  29.448  0.00  0.00    +0.166 HD
ATOM     41  CD1 TRP A   3      70.887   8.944  30.816  0.00  0.00    +0.068 A 
ENDBRANCH  31  32
ENDBRANCH   5  31
ENDBRANCH   1   5
BRANCH   2  42
ATOM     42  CA  GLN A   4      65.578   7.857  35.222  0.00  0.00    +0.149 C 
BRANCH  42  43
ATOM     43  C   GLN A   4      65.199   9.198  35.803  0.00  0.00    +0.241 C 
ATOM     44  O   GLN A   4      64.118   9.316  36.389  0.00  0.00    -0.273 OA
ATOM     45  N   TRP A   5      66.044  10.210  35.639  0.00  0.00    -0.297 N 
ATOM     46  H   TRP A   5      66.786  10.152  34.913  0.00  0.00    +0.150 HD
BRANCH  45  47
ATOM     47  CA  TRP A   5      65.935  11.411  36.479  0.00  0.00    +0.153 C 
BRANCH  47  48
ATOM     48  C   TRP A   5      64.832  12.353  36.066  0.00  0.00    +0.241 C 
ATOM     49  O   TRP A   5      64.506  13.290  36.792  0.00  0.00    -0.273 OA
ATOM     50  N   SER A   6      64.257  12.146  34.888  0.00  0.00    -0.296 N 
ATOM     51  H   SER A   6      64.685  11.463  34.230  0.00  0.00    +0.150 HD
BRANCH  50  52
ATOM     52  CA  SER A   6      63.038  12.850  34.487  0.00  0.00    +0.166 C 
BRANCH  52  53
ATOM     53  CB  SER A   6      61.915  11.884  34.158  0.00  0.00    +0.229 C 
ATOM     54  OG  SER A   6      60.983  12.237  33.441  0.00  0.00    -0.286 OA
ENDBRANCH  52  53
BRANCH  52  55
ATOM     55  C   SER A   6      63.339  13.726  33.264  0.00  0.00    +0.165 C 
BRANCH  55  56
ATOM     56  O   SER A   6      63.709  12.948  32.123  0.00  0.00    -0.380 OA
ATOM     57  H   SER A   6      62.968  12.335  31.889  0.00  0.00    +0.211 HD
ENDBRANCH  55  56
ENDBRANCH  52  55
ENDBRANCH  50  52
ENDBRANCH  47  48
BRANCH  47  58
ATOM     58  CB  TRP A   5      67.275  12.143  36.588  0.00  0.00    +0.057 C 
BRANCH  58  59
ATOM     59  CG  TRP A   5      68.018  12.504  35.317  0.00  0.00    -0.002 A 
ATOM     60  CD1 TRP A   5      68.997  11.795  34.699  0.00  0.00    +0.068 A 
ATOM     61  NE1 TRP A   5      69.453  12.473  33.592  0.00  0.00    -0.352 N 
ATOM     62  CE2 TRP A   5      68.787  13.661  33.493  0.00  0.00    +0.056 A 
ATOM     63  CZ2 TRP A   5      68.898  14.686  32.549  0.00  0.00    +0.017 A 
ATOM     64  CH2 TRP A   5      68.080  15.754  32.681  0.00  0.00    +0.001 A 
ATOM     65  CZ3 TRP A   5      67.146  15.842  33.721  0.00  0.00    +0.000 A 
ATOM     66  CE3 TRP A   5      67.021  14.823  34.659  0.00  0.00    +0.001 A 
ATOM     67  HE1 TRP A   5      70.186  12.135  32.937  0.00  0.00    +0.166 HD
ATOM     68  CD2 TRP A   5      67.859  13.708  34.554  0.00  0.00    +0.013 A 
ENDBRANCH  58  59
ENDBRANCH  47  58
ENDBRANCH  45  47
ENDBRANCH  42  43
BRANCH  42  69
ATOM     69  CB  GLN A   4      65.802   6.839  36.361  0.00  0.00    +0.039 C 
BRANCH  69  70
ATOM     70  CG  GLN A   4      66.680   7.286  37.566  0.00  0.00    +0.087 C 
BRANCH  70  71
ATOM     71  CD  GLN A   4      68.171   7.182  37.382  0.00  0.00    +0.219 C 
ATOM     72  NE2 GLN A   4      68.878   6.845  38.475  0.00  0.00    -0.329 N 
ATOM     73 HE21 GLN A   4      68.388   6.653  39.372  0.00  0.00    +0.145 HD
ATOM     74 HE22 GLN A   4      69.914   6.776  38.423  0.00  0.00    +0.145 HD
ATOM     75  OE1 GLN A   4      68.706   7.421  36.287  0.00  0.00    -0.275 OA
ENDBRANCH  70  71
ENDBRANCH  69  70
ENDBRANCH  42  69
ENDBRANCH   2  42
TORSDOF 25
REMARK  Name = ../refined-set-2016/1uz4/1uz4_pocket.pdb
REMARK  142 active torsions:
REMARK  status: ('A' for Active; 'I' for Inactive)
REMARK    1  A    between atoms: _1  and  _3
REMARK    2  A    between atoms: _3  and  _4
REMARK    3  A    between atoms: _3  and  _6
REMARK    4  A    between atoms: _6  and  _7
REMARK    5  A    between atoms: _12  and  _14
REMARK    6  A    between atoms: _14  and  _15
REMARK    7  A    between atoms: _14  and  _17
REMARK    8  A    between atoms: _17  and  _18
REMARK    9  A    between atoms: _28  and  _30
REMARK   10  A    between atoms: _30  and  _31
REMARK   11  A    between atoms: _30  and  _33
REMARK   12  A    between atoms: _34  and  _35
REMARK   13  A    between atoms: _35  and  _36
REMARK   14  A    between atoms: _45  and  _47
REMARK   15  A    between atoms: _47  and  _48
REMARK   16  A    between atoms: _47  and  _50
REMARK   17  A    between atoms: _50  and  _51
REMARK   18  A    between atoms: _56  and  _57
REMARK   19  A    between atoms: _59  and  _61
REMARK   20  A    between atoms: _61  and  _62
REMARK   21  A    between atoms: _61  and  _64
REMARK   22  A    between atoms: _64  and  _65
REMARK   23  A    between atoms: _70  and  _72
REMARK   24  A    between atoms: _72  and  _73
REMARK   25  A    between atoms: _72  and  _75
REMARK   26  A    between atoms: _75  and  _76
REMARK   27  A    between atoms: _82  and  _84
REMARK   28  A    between atoms: _84  and  _85
REMARK   29  A    between atoms: _84  and  _87
REMARK   30  A    between atoms: _87  and  _88
REMARK   31  A    between atoms: _98  and  _100
REMARK   32  A    between atoms: _100  and  _101
REMARK   33  A    between atoms: _100  and  _103
REMARK   34  A    between atoms: _103  and  _104
REMARK   35  A    between atoms: _104  and  _105
REMARK   36  A    between atoms: _110  and  _112
REMARK   37  A    between atoms: _112  and  _113
REMARK   38  A    between atoms: _112  and  _115
REMARK   39  A    between atoms: _115  and  _116
REMARK   40  A    between atoms: _126  and  _128
REMARK   41  A    between atoms: _128  and  _129
REMARK   42  A    between atoms: _128  and  _131
REMARK   43  A    between atoms: _131  and  _132
REMARK   44  A    between atoms: _134  and  _136
REMARK   45  A    between atoms: _136  and  _137
REMARK   46  A    between atoms: _136  and  _139
REMARK   47  A    between atoms: _139  and  _140
REMARK   48  A    between atoms: _145  and  _147
REMARK   49  A    between atoms: _147  and  _148
REMARK   50  A    between atoms: _147  and  _150
REMARK   51  A    between atoms: _150  and  _151
REMARK   52  A    between atoms: _151  and  _152
REMARK   53  A    between atoms: _155  and  _157
REMARK   54  A    between atoms: _157  and  _158
REMARK   55  A    between atoms: _157  and  _160
REMARK   56  A    between atoms: _160  and  _161
REMARK   57  A    between atoms: _161  and  _162
REMARK   58  A    between atoms: _162  and  _163
REMARK   59  A    between atoms: _172  and  _174
REMARK   60  A    between atoms: _174  and  _175
REMARK   61  A    between atoms: _177  and  _179
REMARK   62  A    between atoms: _179  and  _180
REMARK   63  A    between atoms: _179  and  _182
REMARK   64  A    between atoms: _182  and  _183
REMARK   65  A    between atoms: _183  and  _184
REMARK   66  A    between atoms: _187  and  _189
REMARK   67  A    between atoms: _189  and  _190
REMARK   68  A    between atoms: _189  and  _192
REMARK   69  A    between atoms: _192  and  _193
REMARK   70  A    between atoms: _198  and  _200
REMARK   71  A    between atoms: _200  and  _201
REMARK   72  A    between atoms: _200  and  _203
REMARK   73  A    between atoms: _203  and  _204
REMARK   74  A    between atoms: _204  and  _205
REMARK   75  A    between atoms: _207  and  _209
REMARK   76  A    between atoms: _209  and  _210
REMARK   77  A    between atoms: _209  and  _212
REMARK   78  A    between atoms: _212  and  _213
REMARK   79  A    between atoms: _223  and  _225
REMARK   80  A    between atoms: _225  and  _226
REMARK   81  A    between atoms: _225  and  _228
REMARK   82  A    between atoms: _228  and  _229
REMARK   83  A    between atoms: _229  and  _230
REMARK   84  A    between atoms: _230  and  _231
REMARK   85  A    between atoms: _240  and  _242
REMARK   86  A    between atoms: _242  and  _243
REMARK   87  A    between atoms: _242  and  _245
REMARK   88  A    between atoms: _245  and  _246
REMARK   89  A    between atoms: _251  and  _253
REMARK   90  A    between atoms: _253  and  _254
REMARK   91  A    between atoms: _253  and  _256
REMARK   92  A    between atoms: _256  and  _257
REMARK   93  A    between atoms: _267  and  _269
REMARK   94  A    between atoms: _269  and  _270
REMARK   95  A    between atoms: _269  and  _272
REMARK   96  A    between atoms: _272  and  _273
REMARK   97  A    between atoms: _273  and  _274
REMARK   98  A    between atoms: _277  and  _279
REMARK   99  A    between atoms: _279  and  _280
REMARK  100  A    between atoms: _279  and  _282
REMARK  101  A    between atoms: _282  and  _283
REMARK  102  A    between atoms: _283  and  _284
REMARK  103  A    between atoms: _287  and  _289
REMARK  104  A    between atoms: _289  and  _290
REMARK  105  A    between atoms: _289  and  _292
REMARK  106  A    between atoms: _292  and  _293
REMARK  107  A    between atoms: _299  and  _301
REMARK  108  A    between atoms: _301  and  _302
REMARK  109  A    between atoms: _304  and  _306
REMARK  110  A    between atoms: _306  and  _307
REMARK  111  A    between atoms: _306  and  _309
REMARK  112  A    between atoms: _309  and  _310
REMARK  113  A    between atoms: _320  and  _322
REMARK  114  A    between atoms: _322  and  _323
REMARK  115  A    between atoms: _326  and  _328
REMARK  116  A    between atoms: _328  and  _329
REMARK  117  A    between atoms: _331  and  _333
REMARK  118  A    between atoms: _333  and  _334
REMARK  119  A    between atoms: _333  and  _336
REMARK  120  A    between atoms: _336  and  _337
REMARK  121  A    between atoms: _341  and  _342
REMARK  122  A    between atoms: _348  and  _349
REMARK  123  A    between atoms: _354  and  _356
REMARK  124  A    between atoms: _356  and  _357
REMARK  125  A    between atoms: _356  and  _359
REMARK  126  A    between atoms: _359  and  _360
REMARK  127  A    between atoms: _360  and  _361
REMARK  128  A    between atoms: _366  and  _368
REMARK  129  A    between atoms: _368  and  _369
REMARK  130  A    between atoms: _368  and  _371
REMARK  131  A    between atoms: _371  and  _372
REMARK  132  A    between atoms: _372  and  _373
REMARK  133  A    between atoms: _376  and  _378
REMARK  134  A    between atoms: _378  and  _379
REMARK  135  A    between atoms: _378  and  _381
REMARK  136  A    between atoms: _381  and  _382
REMARK  137  A    between atoms: _382  and  _383
REMARK  138  A    between atoms: _385  and  _387
REMARK  139  A    between atoms: _387  and  _388
REMARK  140  A    between atoms: _387  and  _390
REMARK  141  A    between atoms: _390  and  _391
REMARK  142  A    between atoms: _396  and  _397
REMARK                            x       y       z     vdW  Elec       q    Type
REMARK                         _______ _______ _______ _____ _____    ______ ____
ROOT
ATOM      1  C   ASN A   1      69.408  11.282  26.338  0.00  0.00    +0.239 C 
ATOM      2  O   ASN A   1      68.882  10.357  26.966  0.00  0.00    -0.274 OA
ATOM      3  N   GLU A   2      70.481  11.130  25.571  0.00  0.00    -0.298 N 
ATOM      4  H   GLU A   2      70.747  11.918  24.946  0.00  0.00    +0.150 HD
ENDROOT
BRANCH   1   5
ATOM      5  CA  ASN A   1      68.778  12.677  26.357  0.00  0.00    +0.154 C 
BRANCH   5   6
ATOM      6  N   ASN A   1      67.476  12.678  25.708  0.00  0.00    -0.238 NA
ATOM      7  H   ASN A   1      66.621  12.592  26.294  0.00  0.00    +0.142 HD
ENDBRANCH   5   6
BRANCH   5   8
ATOM      8  CB  ASN A   1      68.666  13.139  27.790  0.00  0.00    +0.111 C 
BRANCH   8   9
ATOM      9  CG  ASN A   1      70.027  13.269  28.450  0.00  0.00    +0.221 C 
ATOM     10  ND2 ASN A   1      70.185  12.605  29.582  0.00  0.00    -0.329 N 
ATOM     11 HD21 ASN A   1      71.120  12.566  30.036  0.00  0.00    +0.145 HD
ATOM     12 HD22 ASN A   1      69.374  12.122  30.019  0.00  0.00    +0.145 HD
ATOM     13  OD1 ASN A   1      70.948  13.861  27.884  0.00  0.00    -0.275 OA
ENDBRANCH   8   9
ENDBRANCH   5   8
ENDBRANCH   1   5
BRANCH   3  14
ATOM     14  CA  GLU A   2      71.315   9.926  25.547  0.00  0.00    +0.137 C 
BRANCH  14  15
ATOM     15  C   GLU A   2      70.572   8.649  25.170  0.00  0.00    +0.227 C 
ATOM     16  O   GLU A   2      70.754   7.626  25.800  0.00  0.00    -0.286 OA
ENDBRANCH  14  15
BRANCH  14  17
ATOM     17  CB  GLU A   2      72.075   9.784  26.878  0.00  0.00    +0.039 C 
BRANCH  17  18
ATOM     18  CG  GLU A   2      72.983  10.964  27.137  0.00  0.00    +0.116 C 
BRANCH  18  19
ATOM     19  CD  GLU A   2      74.059  10.728  28.187  0.00  0.00    +0.365 C 
ATOM     20  OE2 GLU A   2      73.878   9.805  29.034  0.00  0.00    -0.246 OA
ATOM     21  OE1 GLU A   2      75.081  11.475  28.174  0.00  0.00    -0.246 OA
ENDBRANCH  18  19
ENDBRANCH  17  18
ENDBRANCH  14  17
ENDBRANCH   3  14
TORSDOF 9
REMARK  Name = ../refined-set-2016/1uz4/1uz4_pocket.pdb
REMARK  142 active torsions:
REMARK  status: ('A' for Active; 'I' for Inactive)
REMARK    1  A    between atoms: _1  and  _3
REMARK    2  A    between atoms: _3  and  _4
REMARK    3  A    between atoms: _3  and  _6
REMARK    4  A    between atoms: _6  and  _7
REMARK    5  A    between atoms: _12  and  _14
REMARK    6  A    between atoms: _14  and  _15
REMARK    7  A    between atoms: _14  and  _17
REMARK    8  A    between atoms: _17  and  _18
REMARK    9  A    between atoms: _28  and  _30
REMARK   10  A    between atoms: _30  and  _31
REMARK   11  A    between atoms: _30  and  _33
REMARK   12  A    between atoms: _34  and  _35
REMARK   13  A    between atoms: _35  and  _36
REMARK   14  A    between atoms: _45  and  _47
REMARK   15  A    between atoms: _47  and  _48
REMARK   16  A    between atoms: _47  and  _50
REMARK   17  A    between atoms: _50  and  _51
REMARK   18  A    between atoms: _56  and  _57
REMARK   19  A    between atoms: _59  and  _61
REMARK   20  A    between atoms: _61  and  _62
REMARK   21  A    between atoms: _61  and  _64
REMARK   22  A    between atoms: _64  and  _65
REMARK   23  A    between atoms: _70  and  _72
REMARK   24  A    between atoms: _72  and  _73
REMARK   25  A    between atoms: _72  and  _75
REMARK   26  A    between atoms: _75  and  _76
REMARK   27  A    between atoms: _82  and  _84
REMARK   28  A    between atoms: _84  and  _85
REMARK   29  A    between atoms: _84  and  _87
REMARK   30  A    between atoms: _87  and  _88
REMARK   31  A    between atoms: _98  and  _100
REMARK   32  A    between atoms: _100  and  _101
REMARK   33  A    between atoms: _100  and  _103
REMARK   34  A    between atoms: _103  and  _104
REMARK   35  A    between atoms: _104  and  _105
REMARK   36  A    between atoms: _110  and  _112
REMARK   37  A    between atoms: _112  and  _113
REMARK   38  A    between atoms: _112  and  _115
REMARK   39  A    between atoms: _115  and  _116
REMARK   40  A    between atoms: _126  and  _128
REMARK   41  A    between atoms: _128  and  _129
REMARK   42  A    between atoms: _128  and  _131
REMARK   43  A    between atoms: _131  and  _132
REMARK   44  A    between atoms: _134  and  _136
REMARK   45  A    between atoms: _136  and  _137
REMARK   46  A    between atoms: _136  and  _139
REMARK   47  A    between atoms: _139  and  _140
REMARK   48  A    between atoms: _145  and  _147
REMARK   49  A    between atoms: _147  and  _148
REMARK   50  A    between atoms: _147  and  _150
REMARK   51  A    between atoms: _150  and  _151
REMARK   52  A    between atoms: _151  and  _152
REMARK   53  A    between atoms: _155  and  _157
REMARK   54  A    between atoms: _157  and  _158
REMARK   55  A    between atoms: _157  and  _160
REMARK   56  A    between atoms: _160  and  _161
REMARK   57  A    between atoms: _161  and  _162
REMARK   58  A    between atoms: _162  and  _163
REMARK   59  A    between atoms: _172  and  _174
REMARK   60  A    between atoms: _174  and  _175
REMARK   61  A    between atoms: _177  and  _179
REMARK   62  A    between atoms: _179  and  _180
REMARK   63  A    between atoms: _179  and  _182
REMARK   64  A    between atoms: _182  and  _183
REMARK   65  A    between atoms: _183  and  _184
REMARK   66  A    between atoms: _187  and  _189
REMARK   67  A    between atoms: _189  and  _190
REMARK   68  A    between atoms: _189  and  _192
REMARK   69  A    between atoms: _192  and  _193
REMARK   70  A    between atoms: _198  and  _200
REMARK   71  A    between atoms: _200  and  _201
REMARK   72  A    between atoms: _200  and  _203
REMARK   73  A    between atoms: _203  and  _204
REMARK   74  A    between atoms: _204  and  _205
REMARK   75  A    between atoms: _207  and  _209
REMARK   76  A    between atoms: _209  and  _210
REMARK   77  A    between atoms: _209  and  _212
REMARK   78  A    between atoms: _212  and  _213
REMARK   79  A    between atoms: _223  and  _225
REMARK   80  A    between atoms: _225  and  _226
REMARK   81  A    between atoms: _225  and  _228
REMARK   82  A    between atoms: _228  and  _229
REMARK   83  A    between atoms: _229  and  _230
REMARK   84  A    between atoms: _230  and  _231
REMARK   85  A    between atoms: _240  and  _242
REMARK   86  A    between atoms: _242  and  _243
REMARK   87  A    between atoms: _242  and  _245
REMARK   88  A    between atoms: _245  and  _246
REMARK   89  A    between atoms: _251  and  _253
REMARK   90  A    between atoms: _253  and  _254
REMARK   91  A    between atoms: _253  and  _256
REMARK   92  A    between atoms: _256  and  _257
REMARK   93  A    between atoms: _267  and  _269
REMARK   94  A    between atoms: _269  and  _270
REMARK   95  A    between atoms: _269  and  _272
REMARK   96  A    between atoms: _272  and  _273
REMARK   97  A    between atoms: _273  and  _274
REMARK   98  A    between atoms: _277  and  _279
REMARK   99  A    between atoms: _279  and  _280
REMARK  100  A    between atoms: _279  and  _282
REMARK  101  A    between atoms: _282  and  _283
REMARK  102  A    between atoms: _283  and  _284
REMARK  103  A    between atoms: _287  and  _289
REMARK  104  A    between atoms: _289  and  _290
REMARK  105  A    between atoms: _289  and  _292
REMARK  106  A    between atoms: _292  and  _293
REMARK  107  A    between atoms: _299  and  _301
REMARK  108  A    between atoms: _301  and  _302
REMARK  109  A    between atoms: _304  and  _306
REMARK  110  A    between atoms: _306  and  _307
REMARK  111  A    between atoms: _306  and  _309
REMARK  112  A    between atoms: _309  and  _310
REMARK  113  A    between atoms: _320  and  _322
REMARK  114  A    between atoms: _322  and  _323
REMARK  115  A    between atoms: _326  and  _328
REMARK  116  A    between atoms: _328  and  _329
REMARK  117  A    between atoms: _331  and  _333
REMARK  118  A    between atoms: _333  and  _334
REMARK  119  A    between atoms: _333  and  _336
REMARK  120  A    between atoms: _336  and  _337
REMARK  121  A    between atoms: _341  and  _342
REMARK  122  A    between atoms: _348  and  _349
REMARK  123  A    between atoms: _354  and  _356
REMARK  124  A    between atoms: _356  and  _357
REMARK  125  A    between atoms: _356  and  _359
REMARK  126  A    between atoms: _359  and  _360
REMARK  127  A    between atoms: _360  and  _361
REMARK  128  A    between atoms: _366  and  _368
REMARK  129  A    between atoms: _368  and  _369
REMARK  130  A    between atoms: _368  and  _371
REMARK  131  A    between atoms: _371  and  _372
REMARK  132  A    between atoms: _372  and  _373
REMARK  133  A    between atoms: _376  and  _378
REMARK  134  A    between atoms: _378  and  _379
REMARK  135  A    between atoms: _378  and  _381
REMARK  136  A    between atoms: _381  and  _382
REMARK  137  A    between atoms: _382  and  _383
REMARK  138  A    between atoms: _385  and  _387
REMARK  139  A    between atoms: _387  and  _388
REMARK  140  A    between atoms: _387  and  _390
REMARK  141  A    between atoms: _390  and  _391
REMARK  142  A    between atoms: _396  and  _397
REMARK                            x       y       z     vdW  Elec       q    Type
REMARK                         _______ _______ _______ _____ _____    ______ ____
ROOT
ATOM      1  NE  ARG A   1      74.483   4.708  27.049  0.00  0.00    -0.265 N 
ATOM      2  CZ  ARG A   1      75.470   4.231  27.771  0.00  0.00    +0.342 C 
ATOM      3  NH2 ARG A   1      75.455   2.964  28.203  0.00  0.00    -0.292 N 
ATOM      4 HH21 ARG A   1      76.244   2.600  28.774  0.00  0.00    +0.255 HD
ATOM      5 HH22 ARG A   1      74.654   2.344  27.967  0.00  0.00    +0.255 HD
ATOM      6  NH1 ARG A   1      76.490   5.032  28.090  0.00  0.00    -0.292 N 
ATOM      7 HH11 ARG A   1      77.279   4.667  28.661  0.00  0.00    +0.255 HD
ATOM      8 HH12 ARG A   1      76.496   6.021  27.767  0.00  0.00    +0.255 HD
ATOM      9  HE  ARG A   1      74.533   5.707  26.766  0.00  0.00    +0.259 HD
ENDROOT
BRANCH   1  10
ATOM     10  CD  ARG A   1      73.331   3.947  26.618  0.00  0.00    +0.174 C 
BRANCH  10  11
ATOM     11  CG  ARG A   1      72.685   4.592  25.378  0.00  0.00    +0.045 C 
BRANCH  11  12
ATOM     12  CB  ARG A   1      71.741   3.636  24.713  0.00  0.00    +0.029 C 
BRANCH  12  13
ATOM     13  CA  ARG A   1      70.985   4.115  23.480  0.00  0.00    +0.133 C 
BRANCH  13  14
ATOM     14  N   ARG A   1      70.080   5.195  23.803  0.00  0.00    -0.239 NA
ATOM     15  H   ARG A   1      69.294   5.014  24.459  0.00  0.00    +0.142 HD
ENDBRANCH  13  14
BRANCH  13  16
ATOM     16  C   ARG A   1      70.168   2.932  22.940  0.00  0.00    +0.224 C 
ATOM     17  O   ARG A   1      68.959   2.823  23.217  0.00  0.00    -0.287 OA
ENDBRANCH  13  16
ENDBRANCH  12  13
ENDBRANCH  11  12
ENDBRANCH  10  11
ENDBRANCH   1  10
TORSDOF 6
REMARK  Name = ../refined-set-2016/1uz4/1uz4_pocket.pdb
REMARK  142 active torsions:
REMARK  status: ('A' for Active; 'I' for Inactive)
REMARK    1  A    between atoms: _1  and  _3
REMARK    2  A    between atoms: _3  and  _4
REMARK    3  A    between atoms: _3  and  _6
REMARK    4  A    between atoms: _6  and  _7
REMARK    5  A    between atoms: _12  and  _14
REMARK    6  A    between atoms: _14  and  _15
REMARK    7  A    between atoms: _14  and  _17
REMARK    8  A    between atoms: _17  and  _18
REMARK    9  A    between atoms: _28  and  _30
REMARK   10  A    between atoms: _30  and  _31
REMARK   11  A    between atoms: _30  and  _33
REMARK   12  A    between atoms: _34  and  _35
REMARK   13  A    between atoms: _35  and  _36
REMARK   14  A    between atoms: _45  and  _47
REMARK   15  A    between atoms: _47  and  _48
REMARK   16  A    between atoms: _47  and  _50
REMARK   17  A    between atoms: _50  and  _51
REMARK   18  A    between atoms: _56  and  _57
REMARK   19  A    between atoms: _59  and  _61
REMARK   20  A    between atoms: _61  and  _62
REMARK   21  A    between atoms: _61  and  _64
REMARK   22  A    between atoms: _64  and  _65
REMARK   23  A    between atoms: _70  and  _72
REMARK   24  A    between atoms: _72  and  _73
REMARK   25  A    between atoms: _72  and  _75
REMARK   26  A    between atoms: _75  and  _76
REMARK   27  A    between atoms: _82  and  _84
REMARK   28  A    between atoms: _84  and  _85
REMARK   29  A    between atoms: _84  and  _87
REMARK   30  A    between atoms: _87  and  _88
REMARK   31  A    between atoms: _98  and  _100
REMARK   32  A    between atoms: _100  and  _101
REMARK   33  A    between atoms: _100  and  _103
REMARK   34  A    between atoms: _103  and  _104
REMARK   35  A    between atoms: _104  and  _105
REMARK   36  A    between atoms: _110  and  _112
REMARK   37  A    between atoms: _112  and  _113
REMARK   38  A    between atoms: _112  and  _115
REMARK   39  A    between atoms: _115  and  _116
REMARK   40  A    between atoms: _126  and  _128
REMARK   41  A    between atoms: _128  and  _129
REMARK   42  A    between atoms: _128  and  _131
REMARK   43  A    between atoms: _131  and  _132
REMARK   44  A    between atoms: _134  and  _136
REMARK   45  A    between atoms: _136  and  _137
REMARK   46  A    between atoms: _136  and  _139
REMARK   47  A    between atoms: _139  and  _140
REMARK   48  A    between atoms: _145  and  _147
REMARK   49  A    between atoms: _147  and  _148
REMARK   50  A    between atoms: _147  and  _150
REMARK   51  A    between atoms: _150  and  _151
REMARK   52  A    between atoms: _151  and  _152
REMARK   53  A    between atoms: _155  and  _157
REMARK   54  A    between atoms: _157  and  _158
REMARK   55  A    between atoms: _157  and  _160
REMARK   56  A    between atoms: _160  and  _161
REMARK   57  A    between atoms: _161  and  _162
REMARK   58  A    between atoms: _162  and  _163
REMARK   59  A    between atoms: _172  and  _174
REMARK   60  A    between atoms: _174  and  _175
REMARK   61  A    between atoms: _177  and  _179
REMARK   62  A    between atoms: _179  and  _180
REMARK   63  A    between atoms: _179  and  _182
REMARK   64  A    between atoms: _182  and  _183
REMARK   65  A    between atoms: _183  and  _184
REMARK   66  A    between atoms: _187  and  _189
REMARK   67  A    between atoms: _189  and  _190
REMARK   68  A    between atoms: _189  and  _192
REMARK   69  A    between atoms: _192  and  _193
REMARK   70  A    between atoms: _198  and  _200
REMARK   71  A    between atoms: _200  and  _201
REMARK   72  A    between atoms: _200  and  _203
REMARK   73  A    between atoms: _203  and  _204
REMARK   74  A    between atoms: _204  and  _205
REMARK   75  A    between atoms: _207  and  _209
REMARK   76  A    between atoms: _209  and  _210
REMARK   77  A    between atoms: _209  and  _212
REMARK   78  A    between atoms: _212  and  _213
REMARK   79  A    between atoms: _223  and  _225
REMARK   80  A    between atoms: _225  and  _226
REMARK   81  A    between atoms: _225  and  _228
REMARK   82  A    between atoms: _228  and  _229
REMARK   83  A    between atoms: _229  and  _230
REMARK   84  A    between atoms: _230  and  _231
REMARK   85  A    between atoms: _240  and  _242
REMARK   86  A    between atoms: _242  and  _243
REMARK   87  A    between atoms: _242  and  _245
REMARK   88  A    between atoms: _245  and  _246
REMARK   89  A    between atoms: _251  and  _253
REMARK   90  A    between atoms: _253  and  _254
REMARK   91  A    between atoms: _253  and  _256
REMARK   92  A    between atoms: _256  and  _257
REMARK   93  A    between atoms: _267  and  _269
REMARK   94  A    between atoms: _269  and  _270
REMARK   95  A    between atoms: _269  and  _272
REMARK   96  A    between atoms: _272  and  _273
REMARK   97  A    between atoms: _273  and  _274
REMARK   98  A    between atoms: _277  and  _279
REMARK   99  A    between atoms: _279  and  _280
REMARK  100  A    between atoms: _279  and  _282
REMARK  101  A    between atoms: _282  and  _283
REMARK  102  A    between atoms: _283  and  _284
REMARK  103  A    between atoms: _287  and  _289
REMARK  104  A    between atoms: _289  and  _290
REMARK  105  A    between atoms: _289  and  _292
REMARK  106  A    between atoms: _292  and  _293
REMARK  107  A    between atoms: _299  and  _301
REMARK  108  A    between atoms: _301  and  _302
REMARK  109  A    between atoms: _304  and  _306
REMARK  110  A    between atoms: _306  and  _307
REMARK  111  A    between atoms: _306  and  _309
REMARK  112  A    between atoms: _309  and  _310
REMARK  113  A    between atoms: _320  and  _322
REMARK  114  A    between atoms: _322  and  _323
REMARK  115  A    between atoms: _326  and  _328
REMARK  116  A    between atoms: _328  and  _329
REMARK  117  A    between atoms: _331  and  _333
REMARK  118  A    between atoms: _333  and  _334
REMARK  119  A    between atoms: _333  and  _336
REMARK  120  A    between atoms: _336  and  _337
REMARK  121  A    between atoms: _341  and  _342
REMARK  122  A    between atoms: _348  and  _349
REMARK  123  A    between atoms: _354  and  _356
REMARK  124  A    between atoms: _356  and  _357
REMARK  125  A    between atoms: _356  and  _359
REMARK  126  A    between atoms: _359  and  _360
REMARK  127  A    between atoms: _360  and  _361
REMARK  128  A    between atoms: _366  and  _368
REMARK  129  A    between atoms: _368  and  _369
REMARK  130  A    between atoms: _368  and  _371
REMARK  131  A    between atoms: _371  and  _372
REMARK  132  A    between atoms: _372  and  _373
REMARK  133  A    between atoms: _376  and  _378
REMARK  134  A    between atoms: _378  and  _379
REMARK  135  A    between atoms: _378  and  _381
REMARK  136  A    between atoms: _381  and  _382
REMARK  137  A    between atoms: _382  and  _383
REMARK  138  A    between atoms: _385  and  _387
REMARK  139  A    between atoms: _387  and  _388
REMARK  140  A    between atoms: _387  and  _390
REMARK  141  A    between atoms: _390  and  _391
REMARK  142  A    between atoms: _396  and  _397
REMARK                            x       y       z     vdW  Elec       q    Type
REMARK                         _______ _______ _______ _____ _____    ______ ____
ROOT
ATOM      1  CA  GLY A   1      70.933  13.627  21.804  0.00  0.00    +0.156 C 
ENDROOT
BRANCH   1   2
ATOM      2  N   GLY A   1      70.445  13.673  20.423  0.00  0.00    -0.238 NA
ATOM      3  H   GLY A   1      70.929  14.304  19.753  0.00  0.00    +0.142 HD
ENDBRANCH   1   2
BRANCH   1   4
ATOM      4  C   GLY A   1      71.852  12.470  22.160  0.00  0.00    +0.226 C 
ATOM      5  O   GLY A   1      72.160  12.244  23.333  0.00  0.00    -0.287 OA
ENDBRANCH   1   4
TORSDOF 2
REMARK  Name = ../refined-set-2016/1uz4/1uz4_pocket.pdb
REMARK  142 active torsions:
REMARK  status: ('A' for Active; 'I' for Inactive)
REMARK    1  A    between atoms: _1  and  _3
REMARK    2  A    between atoms: _3  and  _4
REMARK    3  A    between atoms: _3  and  _6
REMARK    4  A    between atoms: _6  and  _7
REMARK    5  A    between atoms: _12  and  _14
REMARK    6  A    between atoms: _14  and  _15
REMARK    7  A    between atoms: _14  and  _17
REMARK    8  A    between atoms: _17  and  _18
REMARK    9  A    between atoms: _28  and  _30
REMARK   10  A    between atoms: _30  and  _31
REMARK   11  A    between atoms: _30  and  _33
REMARK   12  A    between atoms: _34  and  _35
REMARK   13  A    between atoms: _35  and  _36
REMARK   14  A    between atoms: _45  and  _47
REMARK   15  A    between atoms: _47  and  _48
REMARK   16  A    between atoms: _47  and  _50
REMARK   17  A    between atoms: _50  and  _51
REMARK   18  A    between atoms: _56  and  _57
REMARK   19  A    between atoms: _59  and  _61
REMARK   20  A    between atoms: _61  and  _62
REMARK   21  A    between atoms: _61  and  _64
REMARK   22  A    between atoms: _64  and  _65
REMARK   23  A    between atoms: _70  and  _72
REMARK   24  A    between atoms: _72  and  _73
REMARK   25  A    between atoms: _72  and  _75
REMARK   26  A    between atoms: _75  and  _76
REMARK   27  A    between atoms: _82  and  _84
REMARK   28  A    between atoms: _84  and  _85
REMARK   29  A    between atoms: _84  and  _87
REMARK   30  A    between atoms: _87  and  _88
REMARK   31  A    between atoms: _98  and  _100
REMARK   32  A    between atoms: _100  and  _101
REMARK   33  A    between atoms: _100  and  _103
REMARK   34  A    between atoms: _103  and  _104
REMARK   35  A    between atoms: _104  and  _105
REMARK   36  A    between atoms: _110  and  _112
REMARK   37  A    between atoms: _112  and  _113
REMARK   38  A    between atoms: _112  and  _115
REMARK   39  A    between atoms: _115  and  _116
REMARK   40  A    between atoms: _126  and  _128
REMARK   41  A    between atoms: _128  and  _129
REMARK   42  A    between atoms: _128  and  _131
REMARK   43  A    between atoms: _131  and  _132
REMARK   44  A    between atoms: _134  and  _136
REMARK   45  A    between atoms: _136  and  _137
REMARK   46  A    between atoms: _136  and  _139
REMARK   47  A    between atoms: _139  and  _140
REMARK   48  A    between atoms: _145  and  _147
REMARK   49  A    between atoms: _147  and  _148
REMARK   50  A    between atoms: _147  and  _150
REMARK   51  A    between atoms: _150  and  _151
REMARK   52  A    between atoms: _151  and  _152
REMARK   53  A    between atoms: _155  and  _157
REMARK   54  A    between atoms: _157  and  _158
REMARK   55  A    between atoms: _157  and  _160
REMARK   56  A    between atoms: _160  and  _161
REMARK   57  A    between atoms: _161  and  _162
REMARK   58  A    between atoms: _162  and  _163
REMARK   59  A    between atoms: _172  and  _174
REMARK   60  A    between atoms: _174  and  _175
REMARK   61  A    between atoms: _177  and  _179
REMARK   62  A    between atoms: _179  and  _180
REMARK   63  A    between atoms: _179  and  _182
REMARK   64  A    between atoms: _182  and  _183
REMARK   65  A    between atoms: _183  and  _184
REMARK   66  A    between atoms: _187  and  _189
REMARK   67  A    between atoms: _189  and  _190
REMARK   68  A    between atoms: _189  and  _192
REMARK   69  A    between atoms: _192  and  _193
REMARK   70  A    between atoms: _198  and  _200
REMARK   71  A    between atoms: _200  and  _201
REMARK   72  A    between atoms: _200  and  _203
REMARK   73  A    between atoms: _203  and  _204
REMARK   74  A    between atoms: _204  and  _205
REMARK   75  A    between atoms: _207  and  _209
REMARK   76  A    between atoms: _209  and  _210
REMARK   77  A    between atoms: _209  and  _212
REMARK   78  A    between atoms: _212  and  _213
REMARK   79  A    between atoms: _223  and  _225
REMARK   80  A    between atoms: _225  and  _226
REMARK   81  A    between atoms: _225  and  _228
REMARK   82  A    between atoms: _228  and  _229
REMARK   83  A    between atoms: _229  and  _230
REMARK   84  A    between atoms: _230  and  _231
REMARK   85  A    between atoms: _240  and  _242
REMARK   86  A    between atoms: _242  and  _243
REMARK   87  A    between atoms: _242  and  _245
REMARK   88  A    between atoms: _245  and  _246
REMARK   89  A    between atoms: _251  and  _253
REMARK   90  A    between atoms: _253  and  _254
REMARK   91  A    between atoms: _253  and  _256
REMARK   92  A    between atoms: _256  and  _257
REMARK   93  A    between atoms: _267  and  _269
REMARK   94  A    between atoms: _269  and  _270
REMARK   95  A    between atoms: _269  and  _272
REMARK   96  A    between atoms: _272  and  _273
REMARK   97  A    between atoms: _273  and  _274
REMARK   98  A    between atoms: _277  and  _279
REMARK   99  A    between atoms: _279  and  _280
REMARK  100  A    between atoms: _279  and  _282
REMARK  101  A    between atoms: _282  and  _283
REMARK  102  A    between atoms: _283  and  _284
REMARK  103  A    between atoms: _287  and  _289
REMARK  104  A    between atoms: _289  and  _290
REMARK  105  A    between atoms: _289  and  _292
REMARK  106  A    between atoms: _292  and  _293
REMARK  107  A    between atoms: _299  and  _301
REMARK  108  A    between atoms: _301  and  _302
REMARK  109  A    between atoms: _304  and  _306
REMARK  110  A    between atoms: _306  and  _307
REMARK  111  A    between atoms: _306  and  _309
REMARK  112  A    between atoms: _309  and  _310
REMARK  113  A    between atoms: _320  and  _322
REMARK  114  A    between atoms: _322  and  _323
REMARK  115  A    between atoms: _326  and  _328
REMARK  116  A    between atoms: _328  and  _329
REMARK  117  A    between atoms: _331  and  _333
REMARK  118  A    between atoms: _333  and  _334
REMARK  119  A    between atoms: _333  and  _336
REMARK  120  A    between atoms: _336  and  _337
REMARK  121  A    between atoms: _341  and  _342
REMARK  122  A    between atoms: _348  and  _349
REMARK  123  A    between atoms: _354  and  _356
REMARK  124  A    between atoms: _356  and  _357
REMARK  125  A    between atoms: _356  and  _359
REMARK  126  A    between atoms: _359  and  _360
REMARK  127  A    between atoms: _360  and  _361
REMARK  128  A    between atoms: _366  and  _368
REMARK  129  A    between atoms: _368  and  _369
REMARK  130  A    between atoms: _368  and  _371
REMARK  131  A    between atoms: _371  and  _372
REMARK  132  A    between atoms: _372  and  _373
REMARK  133  A    between atoms: _376  and  _378
REMARK  134  A    between atoms: _378  and  _379
REMARK  135  A    between atoms: _378  and  _381
REMARK  136  A    between atoms: _381  and  _382
REMARK  137  A    between atoms: _382  and  _383
REMARK  138  A    between atoms: _385  and  _387
REMARK  139  A    between atoms: _387  and  _388
REMARK  140  A    between atoms: _387  and  _390
REMARK  141  A    between atoms: _390  and  _391
REMARK  142  A    between atoms: _396  and  _397
REMARK                            x       y       z     vdW  Elec       q    Type
REMARK                         _______ _______ _______ _____ _____    ______ ____
ROOT
ATOM      1  CA  GLU A   1      76.508  10.307  23.326  0.00  0.00    +0.134 C 
ENDROOT
BRANCH   1   2
ATOM      2  N   GLU A   1      75.177  10.165  22.774  0.00  0.00    -0.239 NA
ATOM      3  H   GLU A   1      74.638   9.304  22.997  0.00  0.00    +0.142 HD
ENDBRANCH   1   2
BRANCH   1   4
ATOM      4  C   GLU A   1      77.613  10.069  22.301  0.00  0.00    +0.224 C 
ATOM      5  O   GLU A   1      78.783  10.323  22.584  0.00  0.00    -0.287 OA
ENDBRANCH   1   4
BRANCH   1   6
ATOM      6  CB  GLU A   1      76.731   9.317  24.462  0.00  0.00    +0.037 C 
BRANCH   6   7
ATOM      7  CG  GLU A   1      75.768   9.385  25.612  0.00  0.00    +0.116 C 
BRANCH   7   8
ATOM      8  CD  GLU A   1      75.684   8.014  26.254  0.00  0.00    +0.365 C 
ATOM      9  OE2 GLU A   1      76.652   7.665  26.987  0.00  0.00    -0.246 OA
ATOM     10  OE1 GLU A   1      74.712   7.291  25.943  0.00  0.00    -0.246 OA
ENDBRANCH   7   8
ENDBRANCH   6   7
ENDBRANCH   1   6
TORSDOF 5
REMARK  Name = ../refined-set-2016/1uz4/1uz4_pocket.pdb
REMARK  142 active torsions:
REMARK  status: ('A' for Active; 'I' for Inactive)
REMARK    1  A    between atoms: _1  and  _3
REMARK    2  A    between atoms: _3  and  _4
REMARK    3  A    between atoms: _3  and  _6
REMARK    4  A    between atoms: _6  and  _7
REMARK    5  A    between atoms: _12  and  _14
REMARK    6  A    between atoms: _14  and  _15
REMARK    7  A    between atoms: _14  and  _17
REMARK    8  A    between atoms: _17  and  _18
REMARK    9  A    between atoms: _28  and  _30
REMARK   10  A    between atoms: _30  and  _31
REMARK   11  A    between atoms: _30  and  _33
REMARK   12  A    between atoms: _34  and  _35
REMARK   13  A    between atoms: _35  and  _36
REMARK   14  A    between atoms: _45  and  _47
REMARK   15  A    between atoms: _47  and  _48
REMARK   16  A    between atoms: _47  and  _50
REMARK   17  A    between atoms: _50  and  _51
REMARK   18  A    between atoms: _56  and  _57
REMARK   19  A    between atoms: _59  and  _61
REMARK   20  A    between atoms: _61  and  _62
REMARK   21  A    between atoms: _61  and  _64
REMARK   22  A    between atoms: _64  and  _65
REMARK   23  A    between atoms: _70  and  _72
REMARK   24  A    between atoms: _72  and  _73
REMARK   25  A    between atoms: _72  and  _75
REMARK   26  A    between atoms: _75  and  _76
REMARK   27  A    between atoms: _82  and  _84
REMARK   28  A    between atoms: _84  and  _85
REMARK   29  A    between atoms: _84  and  _87
REMARK   30  A    between atoms: _87  and  _88
REMARK   31  A    between atoms: _98  and  _100
REMARK   32  A    between atoms: _100  and  _101
REMARK   33  A    between atoms: _100  and  _103
REMARK   34  A    between atoms: _103  and  _104
REMARK   35  A    between atoms: _104  and  _105
REMARK   36  A    between atoms: _110  and  _112
REMARK   37  A    between atoms: _112  and  _113
REMARK   38  A    between atoms: _112  and  _115
REMARK   39  A    between atoms: _115  and  _116
REMARK   40  A    between atoms: _126  and  _128
REMARK   41  A    between atoms: _128  and  _129
REMARK   42  A    between atoms: _128  and  _131
REMARK   43  A    between atoms: _131  and  _132
REMARK   44  A    between atoms: _134  and  _136
REMARK   45  A    between atoms: _136  and  _137
REMARK   46  A    between atoms: _136  and  _139
REMARK   47  A    between atoms: _139  and  _140
REMARK   48  A    between atoms: _145  and  _147
REMARK   49  A    between atoms: _147  and  _148
REMARK   50  A    between atoms: _147  and  _150
REMARK   51  A    between atoms: _150  and  _151
REMARK   52  A    between atoms: _151  and  _152
REMARK   53  A    between atoms: _155  and  _157
REMARK   54  A    between atoms: _157  and  _158
REMARK   55  A    between atoms: _157  and  _160
REMARK   56  A    between atoms: _160  and  _161
REMARK   57  A    between atoms: _161  and  _162
REMARK   58  A    between atoms: _162  and  _163
REMARK   59  A    between atoms: _172  and  _174
REMARK   60  A    between atoms: _174  and  _175
REMARK   61  A    between atoms: _177  and  _179
REMARK   62  A    between atoms: _179  and  _180
REMARK   63  A    between atoms: _179  and  _182
REMARK   64  A    between atoms: _182  and  _183
REMARK   65  A    between atoms: _183  and  _184
REMARK   66  A    between atoms: _187  and  _189
REMARK   67  A    between atoms: _189  and  _190
REMARK   68  A    between atoms: _189  and  _192
REMARK   69  A    between atoms: _192  and  _193
REMARK   70  A    between atoms: _198  and  _200
REMARK   71  A    between atoms: _200  and  _201
REMARK   72  A    between atoms: _200  and  _203
REMARK   73  A    between atoms: _203  and  _204
REMARK   74  A    between atoms: _204  and  _205
REMARK   75  A    between atoms: _207  and  _209
REMARK   76  A    between atoms: _209  and  _210
REMARK   77  A    between atoms: _209  and  _212
REMARK   78  A    between atoms: _212  and  _213
REMARK   79  A    between atoms: _223  and  _225
REMARK   80  A    between atoms: _225  and  _226
REMARK   81  A    between atoms: _225  and  _228
REMARK   82  A    between atoms: _228  and  _229
REMARK   83  A    between atoms: _229  and  _230
REMARK   84  A    between atoms: _230  and  _231
REMARK   85  A    between atoms: _240  and  _242
REMARK   86  A    between atoms: _242  and  _243
REMARK   87  A    between atoms: _242  and  _245
REMARK   88  A    between atoms: _245  and  _246
REMARK   89  A    between atoms: _251  and  _253
REMARK   90  A    between atoms: _253  and  _254
REMARK   91  A    between atoms: _253  and  _256
REMARK   92  A    between atoms: _256  and  _257
REMARK   93  A    between atoms: _267  and  _269
REMARK   94  A    between atoms: _269  and  _270
REMARK   95  A    between atoms: _269  and  _272
REMARK   96  A    between atoms: _272  and  _273
REMARK   97  A    between atoms: _273  and  _274
REMARK   98  A    between atoms: _277  and  _279
REMARK   99  A    between atoms: _279  and  _280
REMARK  100  A    between atoms: _279  and  _282
REMARK  101  A    between atoms: _282  and  _283
REMARK  102  A    between atoms: _283  and  _284
REMARK  103  A    between atoms: _287  and  _289
REMARK  104  A    between atoms: _289  and  _290
REMARK  105  A    between atoms: _289  and  _292
REMARK  106  A    between atoms: _292  and  _293
REMARK  107  A    between atoms: _299  and  _301
REMARK  108  A    between atoms: _301  and  _302
REMARK  109  A    between atoms: _304  and  _306
REMARK  110  A    between atoms: _306  and  _307
REMARK  111  A    between atoms: _306  and  _309
REMARK  112  A    between atoms: _309  and  _310
REMARK  113  A    between atoms: _320  and  _322
REMARK  114  A    between atoms: _322  and  _323
REMARK  115  A    between atoms: _326  and  _328
REMARK  116  A    between atoms: _328  and  _329
REMARK  117  A    between atoms: _331  and  _333
REMARK  118  A    between atoms: _333  and  _334
REMARK  119  A    between atoms: _333  and  _336
REMARK  120  A    between atoms: _336  and  _337
REMARK  121  A    between atoms: _341  and  _342
REMARK  122  A    between atoms: _348  and  _349
REMARK  123  A    between atoms: _354  and  _356
REMARK  124  A    between atoms: _356  and  _357
REMARK  125  A    between atoms: _356  and  _359
REMARK  126  A    between atoms: _359  and  _360
REMARK  127  A    between atoms: _360  and  _361
REMARK  128  A    between atoms: _366  and  _368
REMARK  129  A    between atoms: _368  and  _369
REMARK  130  A    between atoms: _368  and  _371
REMARK  131  A    between atoms: _371  and  _372
REMARK  132  A    between atoms: _372  and  _373
REMARK  133  A    between atoms: _376  and  _378
REMARK  134  A    between atoms: _378  and  _379
REMARK  135  A    between atoms: _378  and  _381
REMARK  136  A    between atoms: _381  and  _382
REMARK  137  A    between atoms: _382  and  _383
REMARK  138  A    between atoms: _385  and  _387
REMARK  139  A    between atoms: _387  and  _388
REMARK  140  A    between atoms: _387  and  _390
REMARK  141  A    between atoms: _390  and  _391
REMARK  142  A    between atoms: _396  and  _397
REMARK                            x       y       z     vdW  Elec       q    Type
REMARK                         _______ _______ _______ _____ _____    ______ ____
ROOT
ATOM      1  CA  MET A   2      82.245  12.712  26.879  0.00  0.00    +0.149 C 
ENDROOT
BRANCH   1   3
ATOM      2  C   HIS A   1      80.258  12.757  25.453  0.00  0.00    +0.239 C 
ATOM      3  N   MET A   2      80.991  13.324  26.399  0.00  0.00    -0.297 N 
ATOM      4  H   MET A   2      80.675  14.224  26.814  0.00  0.00    +0.150 HD
ATOM      5  O   HIS A   1      80.537  11.653  24.978  0.00  0.00    -0.274 OA
BRANCH   2   6
ATOM      6  CA  HIS A   1      78.997  13.451  24.988  0.00  0.00    +0.151 C 
BRANCH   6   7
ATOM      7  N   HIS A   1      78.863  13.098  23.592  0.00  0.00    -0.238 NA
ATOM      8  H   HIS A   1      78.843  12.093  23.327  0.00  0.00    +0.142 HD
ENDBRANCH   6   7
BRANCH   6   9
ATOM      9  CB  HIS A   1      77.830  12.938  25.821  0.00  0.00    +0.074 C 
BRANCH   9  10
ATOM     10  CG  HIS A   1      76.476  13.433  25.425  0.00  0.00    +0.082 A 
ATOM     11  ND1 HIS A   1      75.346  13.075  26.134  0.00  0.00    -0.227 NA
ATOM     12  CE1 HIS A   1      74.281  13.629  25.573  0.00  0.00    +0.199 A 
ATOM     13  NE2 HIS A   1      74.678  14.362  24.554  0.00  0.00    -0.221 NA
ATOM     14  CD2 HIS A   1      76.046  14.250  24.428  0.00  0.00    +0.115 A 
ENDBRANCH   9  10
ENDBRANCH   6   9
ENDBRANCH   2   6
ENDBRANCH   1   3
BRANCH   1  15
ATOM     15  C   MET A   2      82.243  12.698  28.412  0.00  0.00    +0.241 C 
ATOM     16  O   MET A   2      82.143  13.755  29.030  0.00  0.00    -0.273 OA
ATOM     17  N   TRP A   3      82.351  11.497  28.986  0.00  0.00    -0.298 N 
ATOM     18  H   TRP A   3      82.526  10.683  28.363  0.00  0.00    +0.150 HD
BRANCH  17  19
ATOM     19  CA  TRP A   3      82.243  11.235  30.423  0.00  0.00    +0.141 C 
BRANCH  19  20
ATOM     20  C   TRP A   3      83.367  10.333  30.938  0.00  0.00    +0.227 C 
ATOM     21  O   TRP A   3      83.172   9.149  31.219  0.00  0.00    -0.286 OA
ENDBRANCH  19  20
BRANCH  19  22
ATOM     22  CB  TRP A   3      80.853  10.681  30.760  0.00  0.00    +0.056 C 
BRANCH  22  23
ATOM     23  CG  TRP A   3      79.833  11.783  30.587  0.00  0.00    -0.002 A 
ATOM     24  CD2 TRP A   3      79.773  12.933  31.386  0.00  0.00    +0.013 A 
ATOM     25  CE3 TRP A   3      80.505  13.375  32.497  0.00  0.00    +0.001 A 
ATOM     26  CZ3 TRP A   3      80.181  14.616  33.078  0.00  0.00    +0.000 A 
ATOM     27  CH2 TRP A   3      79.122  15.375  32.563  0.00  0.00    +0.001 A 
ATOM     28  CZ2 TRP A   3      78.403  14.959  31.468  0.00  0.00    +0.017 A 
ATOM     29  CE2 TRP A   3      78.749  13.746  30.881  0.00  0.00    +0.056 A 
ATOM     30  NE1 TRP A   3      78.176  13.068  29.833  0.00  0.00    -0.352 N 
ATOM     31  HE1 TRP A   3      77.361  13.390  29.272  0.00  0.00    +0.166 HD
ATOM     32  CD1 TRP A   3      78.864  11.890  29.652  0.00  0.00    +0.068 A 
ENDBRANCH  22  23
ENDBRANCH  19  22
ENDBRANCH  17  19
ENDBRANCH   1  15
BRANCH   1  33
ATOM     33  CB  MET A   2      83.494  13.449  26.400  0.00  0.00    +0.041 C 
BRANCH  33  34
ATOM     34  CG  MET A   2      83.971  13.124  25.095  0.00  0.00    +0.060 C 
BRANCH  34  35
ATOM     35  SD  MET A   2      85.845  13.208  25.013  0.00  0.00    -0.139 S 
ATOM     36  CE  MET A   2      86.029  15.010  25.361  0.00  0.00    +0.069 C 
ENDBRANCH  34  35
ENDBRANCH  33  34
ENDBRANCH   1  33
TORSDOF 13
REMARK  Name = ../refined-set-2016/1uz4/1uz4_pocket.pdb
REMARK  142 active torsions:
REMARK  status: ('A' for Active; 'I' for Inactive)
REMARK    1  A    between atoms: _1  and  _3
REMARK    2  A    between atoms: _3  and  _4
REMARK    3  A    between atoms: _3  and  _6
REMARK    4  A    between atoms: _6  and  _7
REMARK    5  A    between atoms: _12  and  _14
REMARK    6  A    between atoms: _14  and  _15
REMARK    7  A    between atoms: _14  and  _17
REMARK    8  A    between atoms: _17  and  _18
REMARK    9  A    between atoms: _28  and  _30
REMARK   10  A    between atoms: _30  and  _31
REMARK   11  A    between atoms: _30  and  _33
REMARK   12  A    between atoms: _34  and  _35
REMARK   13  A    between atoms: _35  and  _36
REMARK   14  A    between atoms: _45  and  _47
REMARK   15  A    between atoms: _47  and  _48
REMARK   16  A    between atoms: _47  and  _50
REMARK   17  A    between atoms: _50  and  _51
REMARK   18  A    between atoms: _56  and  _57
REMARK   19  A    between atoms: _59  and  _61
REMARK   20  A    between atoms: _61  and  _62
REMARK   21  A    between atoms: _61  and  _64
REMARK   22  A    between atoms: _64  and  _65
REMARK   23  A    between atoms: _70  and  _72
REMARK   24  A    between atoms: _72  and  _73
REMARK   25  A    between atoms: _72  and  _75
REMARK   26  A    between atoms: _75  and  _76
REMARK   27  A    between atoms: _82  and  _84
REMARK   28  A    between atoms: _84  and  _85
REMARK   29  A    between atoms: _84  and  _87
REMARK   30  A    between atoms: _87  and  _88
REMARK   31  A    between atoms: _98  and  _100
REMARK   32  A    between atoms: _100  and  _101
REMARK   33  A    between atoms: _100  and  _103
REMARK   34  A    between atoms: _103  and  _104
REMARK   35  A    between atoms: _104  and  _105
REMARK   36  A    between atoms: _110  and  _112
REMARK   37  A    between atoms: _112  and  _113
REMARK   38  A    between atoms: _112  and  _115
REMARK   39  A    between atoms: _115  and  _116
REMARK   40  A    between atoms: _126  and  _128
REMARK   41  A    between atoms: _128  and  _129
REMARK   42  A    between atoms: _128  and  _131
REMARK   43  A    between atoms: _131  and  _132
REMARK   44  A    between atoms: _134  and  _136
REMARK   45  A    between atoms: _136  and  _137
REMARK   46  A    between atoms: _136  and  _139
REMARK   47  A    between atoms: _139  and  _140
REMARK   48  A    between atoms: _145  and  _147
REMARK   49  A    between atoms: _147  and  _148
REMARK   50  A    between atoms: _147  and  _150
REMARK   51  A    between atoms: _150  and  _151
REMARK   52  A    between atoms: _151  and  _152
REMARK   53  A    between atoms: _155  and  _157
REMARK   54  A    between atoms: _157  and  _158
REMARK   55  A    between atoms: _157  and  _160
REMARK   56  A    between atoms: _160  and  _161
REMARK   57  A    between atoms: _161  and  _162
REMARK   58  A    between atoms: _162  and  _163
REMARK   59  A    between atoms: _172  and  _174
REMARK   60  A    between atoms: _174  and  _175
REMARK   61  A    between atoms: _177  and  _179
REMARK   62  A    between atoms: _179  and  _180
REMARK   63  A    between atoms: _179  and  _182
REMARK   64  A    between atoms: _182  and  _183
REMARK   65  A    between atoms: _183  and  _184
REMARK   66  A    between atoms: _187  and  _189
REMARK   67  A    between atoms: _189  and  _190
REMARK   68  A    between atoms: _189  and  _192
REMARK   69  A    between atoms: _192  and  _193
REMARK   70  A    between atoms: _198  and  _200
REMARK   71  A    between atoms: _200  and  _201
REMARK   72  A    between atoms: _200  and  _203
REMARK   73  A    between atoms: _203  and  _204
REMARK   74  A    between atoms: _204  and  _205
REMARK   75  A    between atoms: _207  and  _209
REMARK   76  A    between atoms: _209  and  _210
REMARK   77  A    between atoms: _209  and  _212
REMARK   78  A    between atoms: _212  and  _213
REMARK   79  A    between atoms: _223  and  _225
REMARK   80  A    between atoms: _225  and  _226
REMARK   81  A    between atoms: _225  and  _228
REMARK   82  A    between atoms: _228  and  _229
REMARK   83  A    between atoms: _229  and  _230
REMARK   84  A    between atoms: _230  and  _231
REMARK   85  A    between atoms: _240  and  _242
REMARK   86  A    between atoms: _242  and  _243
REMARK   87  A    between atoms: _242  and  _245
REMARK   88  A    between atoms: _245  and  _246
REMARK   89  A    between atoms: _251  and  _253
REMARK   90  A    between atoms: _253  and  _254
REMARK   91  A    between atoms: _253  and  _256
REMARK   92  A    between atoms: _256  and  _257
REMARK   93  A    between atoms: _267  and  _269
REMARK   94  A    between atoms: _269  and  _270
REMARK   95  A    between atoms: _269  and  _272
REMARK   96  A    between atoms: _272  and  _273
REMARK   97  A    between atoms: _273  and  _274
REMARK   98  A    between atoms: _277  and  _279
REMARK   99  A    between atoms: _279  and  _280
REMARK  100  A    between atoms: _279  and  _282
REMARK  101  A    between atoms: _282  and  _283
REMARK  102  A    between atoms: _283  and  _284
REMARK  103  A    between atoms: _287  and  _289
REMARK  104  A    between atoms: _289  and  _290
REMARK  105  A    between atoms: _289  and  _292
REMARK  106  A    between atoms: _292  and  _293
REMARK  107  A    between atoms: _299  and  _301
REMARK  108  A    between atoms: _301  and  _302
REMARK  109  A    between atoms: _304  and  _306
REMARK  110  A    between atoms: _306  and  _307
REMARK  111  A    between atoms: _306  and  _309
REMARK  112  A    between atoms: _309  and  _310
REMARK  113  A    between atoms: _320  and  _322
REMARK  114  A    between atoms: _322  and  _323
REMARK  115  A    between atoms: _326  and  _328
REMARK  116  A    between atoms: _328  and  _329
REMARK  117  A    between atoms: _331  and  _333
REMARK  118  A    between atoms: _333  and  _334
REMARK  119  A    between atoms: _333  and  _336
REMARK  120  A    between atoms: _336  and  _337
REMARK  121  A    between atoms: _341  and  _342
REMARK  122  A    between atoms: _348  and  _349
REMARK  123  A    between atoms: _354  and  _356
REMARK  124  A    between atoms: _356  and  _357
REMARK  125  A    between atoms: _356  and  _359
REMARK  126  A    between atoms: _359  and  _360
REMARK  127  A    between atoms: _360  and  _361
REMARK  128  A    between atoms: _366  and  _368
REMARK  129  A    between atoms: _368  and  _369
REMARK  130  A    between atoms: _368  and  _371
REMARK  131  A    between atoms: _371  and  _372
REMARK  132  A    between atoms: _372  and  _373
REMARK  133  A    between atoms: _376  and  _378
REMARK  134  A    between atoms: _378  and  _379
REMARK  135  A    between atoms: _378  and  _381
REMARK  136  A    between atoms: _381  and  _382
REMARK  137  A    between atoms: _382  and  _383
REMARK  138  A    between atoms: _385  and  _387
REMARK  139  A    between atoms: _387  and  _388
REMARK  140  A    between atoms: _387  and  _390
REMARK  141  A    between atoms: _390  and  _391
REMARK  142  A    between atoms: _396  and  _397
REMARK                            x       y       z     vdW  Elec       q    Type
REMARK                         _______ _______ _______ _____ _____    ______ ____
ROOT
ATOM      1  CA  ASN A   2      81.652   7.596  34.277  0.00  0.00    +0.158 C 
ENDROOT
BRANCH   1   4
ATOM      2  C   ARG A   1      83.920   8.275  34.916  0.00  0.00    +0.238 C 
ATOM      3  O   ARG A   1      84.137   7.154  35.384  0.00  0.00    -0.274 OA
ATOM      4  N   ASN A   2      82.750   8.579  34.357  0.00  0.00    -0.297 N 
ATOM      5  H   ASN A   2      82.607   9.532  33.967  0.00  0.00    +0.150 HD
BRANCH   2   6
ATOM      6  CA  ARG A   1      84.997   9.375  34.988  0.00  0.00    +0.145 C 
BRANCH   6   7
ATOM      7  N   ARG A   1      85.080  10.059  33.678  0.00  0.00    -0.238 NA
ATOM      8  H   ARG A   1      84.659  11.001  33.549  0.00  0.00    +0.142 HD
ENDBRANCH   6   7
BRANCH   6   9
ATOM      9  CB  ARG A   1      84.753  10.361  36.126  0.00  0.00    +0.030 C 
BRANCH   9  10
ATOM     10  CG  ARG A   1      84.940   9.747  37.505  0.00  0.00    +0.045 C 
BRANCH  10  11
ATOM     11  CD  ARG A   1      83.682   9.164  38.036  0.00  0.00    +0.174 C 
BRANCH  11  12
ATOM     12  NE  ARG A   1      82.840  10.255  38.491  0.00  0.00    -0.265 N 
ATOM     13  HE  ARG A   1      83.318  11.128  38.792  0.00  0.00    +0.259 HD
ATOM     14  CZ  ARG A   1      81.515  10.239  38.558  0.00  0.00    +0.342 C 
ATOM     15  NH2 ARG A   1      80.875  11.315  39.004  0.00  0.00    -0.292 N 
ATOM     16 HH21 ARG A   1      81.413  12.156  39.295  0.00  0.00    +0.255 HD
ATOM     17 HH22 ARG A   1      79.837  11.316  39.062  0.00  0.00    +0.255 HD
ATOM     18  NH1 ARG A   1      80.815   9.182  38.189  0.00  0.00    -0.292 N 
ATOM     19 HH11 ARG A   1      79.777   9.198  38.252  0.00  0.00    +0.255 HD
ATOM     20 HH12 ARG A   1      81.302   8.334  37.835  0.00  0.00    +0.255 HD
ENDBRANCH  11  12
ENDBRANCH  10  11
ENDBRANCH   9  10
ENDBRANCH   6   9
ENDBRANCH   2   6
ENDBRANCH   1   4
BRANCH   1  21
ATOM     21  C   ASN A   2      82.103   6.321  33.554  0.00  0.00    +0.241 C 
ATOM     22  O   ASN A   2      81.638   5.211  33.864  0.00  0.00    -0.273 OA
ATOM     23  N   TRP A   3      82.984   6.480  32.563  0.00  0.00    -0.298 N 
ATOM     24  H   TRP A   3      83.352   7.436  32.382  0.00  0.00    +0.150 HD
BRANCH  23  25
ATOM     25  CA  TRP A   3      83.461   5.385  31.717  0.00  0.00    +0.141 C 
BRANCH  25  26
ATOM     26  C   TRP A   3      84.670   4.635  32.300  0.00  0.00    +0.227 C 
ATOM     27  O   TRP A   3      85.218   3.738  31.674  0.00  0.00    -0.286 OA
ENDBRANCH  25  26
BRANCH  25  28
ATOM     28  CB  TRP A   3      83.789   5.919  30.332  0.00  0.00    +0.056 C 
BRANCH  28  29
ATOM     29  CG  TRP A   3      82.605   6.553  29.642  0.00  0.00    -0.002 A 
ATOM     30  CD1 TRP A   3      81.293   6.453  29.992  0.00  0.00    +0.068 A 
ATOM     31  NE1 TRP A   3      80.518   7.203  29.142  0.00  0.00    -0.352 N 
ATOM     32  HE1 TRP A   3      79.483   7.295  29.191  0.00  0.00    +0.166 HD
ATOM     33  CE2 TRP A   3      81.329   7.810  28.219  0.00  0.00    +0.056 A 
ATOM     34  CZ2 TRP A   3      81.010   8.650  27.143  0.00  0.00    +0.017 A 
ATOM     35  CH2 TRP A   3      82.052   9.098  26.368  0.00  0.00    +0.001 A 
ATOM     36  CZ3 TRP A   3      83.375   8.743  26.643  0.00  0.00    +0.000 A 
ATOM     37  CE3 TRP A   3      83.688   7.906  27.702  0.00  0.00    +0.001 A 
ATOM     38  CD2 TRP A   3      82.654   7.434  28.518  0.00  0.00    +0.013 A 
ENDBRANCH  28  29
ENDBRANCH  25  28
ENDBRANCH  23  25
ENDBRANCH   1  21
BRANCH   1  39
ATOM     39  CB  ASN A   2      80.456   8.146  33.499  0.00  0.00    +0.114 C 
BRANCH  39  40
ATOM     40  CG  ASN A   2      79.851   9.408  34.130  0.00  0.00    +0.222 C 
ATOM     41  OD1 ASN A   2      80.569  10.245  34.681  0.00  0.00    -0.275 OA
ATOM     42  ND2 ASN A   2      78.554   9.571  33.958  0.00  0.00    -0.329 N 
ATOM     43 HD21 ASN A   2      78.090  10.439  34.294  0.00  0.00    +0.145 HD
ATOM     44 HD22 ASN A   2      77.995   8.832  33.486  0.00  0.00    +0.145 HD
ENDBRANCH  39  40
ENDBRANCH   1  39
TORSDOF 14
REMARK  Name = ../refined-set-2016/1uz4/1uz4_pocket.pdb
REMARK  142 active torsions:
REMARK  status: ('A' for Active; 'I' for Inactive)
REMARK    1  A    between atoms: _1  and  _3
REMARK    2  A    between atoms: _3  and  _4
REMARK    3  A    between atoms: _3  and  _6
REMARK    4  A    between atoms: _6  and  _7
REMARK    5  A    between atoms: _12  and  _14
REMARK    6  A    between atoms: _14  and  _15
REMARK    7  A    between atoms: _14  and  _17
REMARK    8  A    between atoms: _17  and  _18
REMARK    9  A    between atoms: _28  and  _30
REMARK   10  A    between atoms: _30  and  _31
REMARK   11  A    between atoms: _30  and  _33
REMARK   12  A    between atoms: _34  and  _35
REMARK   13  A    between atoms: _35  and  _36
REMARK   14  A    between atoms: _45  and  _47
REMARK   15  A    between atoms: _47  and  _48
REMARK   16  A    between atoms: _47  and  _50
REMARK   17  A    between atoms: _50  and  _51
REMARK   18  A    between atoms: _56  and  _57
REMARK   19  A    between atoms: _59  and  _61
REMARK   20  A    between atoms: _61  and  _62
REMARK   21  A    between atoms: _61  and  _64
REMARK   22  A    between atoms: _64  and  _65
REMARK   23  A    between atoms: _70  and  _72
REMARK   24  A    between atoms: _72  and  _73
REMARK   25  A    between atoms: _72  and  _75
REMARK   26  A    between atoms: _75  and  _76
REMARK   27  A    between atoms: _82  and  _84
REMARK   28  A    between atoms: _84  and  _85
REMARK   29  A    between atoms: _84  and  _87
REMARK   30  A    between atoms: _87  and  _88
REMARK   31  A    between atoms: _98  and  _100
REMARK   32  A    between atoms: _100  and  _101
REMARK   33  A    between atoms: _100  and  _103
REMARK   34  A    between atoms: _103  and  _104
REMARK   35  A    between atoms: _104  and  _105
REMARK   36  A    between atoms: _110  and  _112
REMARK   37  A    between atoms: _112  and  _113
REMARK   38  A    between atoms: _112  and  _115
REMARK   39  A    between atoms: _115  and  _116
REMARK   40  A    between atoms: _126  and  _128
REMARK   41  A    between atoms: _128  and  _129
REMARK   42  A    between atoms: _128  and  _131
REMARK   43  A    between atoms: _131  and  _132
REMARK   44  A    between atoms: _134  and  _136
REMARK   45  A    between atoms: _136  and  _137
REMARK   46  A    between atoms: _136  and  _139
REMARK   47  A    between atoms: _139  and  _140
REMARK   48  A    between atoms: _145  and  _147
REMARK   49  A    between atoms: _147  and  _148
REMARK   50  A    between atoms: _147  and  _150
REMARK   51  A    between atoms: _150  and  _151
REMARK   52  A    between atoms: _151  and  _152
REMARK   53  A    between atoms: _155  and  _157
REMARK   54  A    between atoms: _157  and  _158
REMARK   55  A    between atoms: _157  and  _160
REMARK   56  A    between atoms: _160  and  _161
REMARK   57  A    between atoms: _161  and  _162
REMARK   58  A    between atoms: _162  and  _163
REMARK   59  A    between atoms: _172  and  _174
REMARK   60  A    between atoms: _174  and  _175
REMARK   61  A    between atoms: _177  and  _179
REMARK   62  A    between atoms: _179  and  _180
REMARK   63  A    between atoms: _179  and  _182
REMARK   64  A    between atoms: _182  and  _183
REMARK   65  A    between atoms: _183  and  _184
REMARK   66  A    between atoms: _187  and  _189
REMARK   67  A    between atoms: _189  and  _190
REMARK   68  A    between atoms: _189  and  _192
REMARK   69  A    between atoms: _192  and  _193
REMARK   70  A    between atoms: _198  and  _200
REMARK   71  A    between atoms: _200  and  _201
REMARK   72  A    between atoms: _200  and  _203
REMARK   73  A    between atoms: _203  and  _204
REMARK   74  A    between atoms: _204  and  _205
REMARK   75  A    between atoms: _207  and  _209
REMARK   76  A    between atoms: _209  and  _210
REMARK   77  A    between atoms: _209  and  _212
REMARK   78  A    between atoms: _212  and  _213
REMARK   79  A    between atoms: _223  and  _225
REMARK   80  A    between atoms: _225  and  _226
REMARK   81  A    between atoms: _225  and  _228
REMARK   82  A    between atoms: _228  and  _229
REMARK   83  A    between atoms: _229  and  _230
REMARK   84  A    between atoms: _230  and  _231
REMARK   85  A    between atoms: _240  and  _242
REMARK   86  A    between atoms: _242  and  _243
REMARK   87  A    between atoms: _242  and  _245
REMARK   88  A    between atoms: _245  and  _246
REMARK   89  A    between atoms: _251  and  _253
REMARK   90  A    between atoms: _253  and  _254
REMARK   91  A    between atoms: _253  and  _256
REMARK   92  A    between atoms: _256  and  _257
REMARK   93  A    between atoms: _267  and  _269
REMARK   94  A    between atoms: _269  and  _270
REMARK   95  A    between atoms: _269  and  _272
REMARK   96  A    between atoms: _272  and  _273
REMARK   97  A    between atoms: _273  and  _274
REMARK   98  A    between atoms: _277  and  _279
REMARK   99  A    between atoms: _279  and  _280
REMARK  100  A    between atoms: _279  and  _282
REMARK  101  A    between atoms: _282  and  _283
REMARK  102  A    between atoms: _283  and  _284
REMARK  103  A    between atoms: _287  and  _289
REMARK  104  A    between atoms: _289  and  _290
REMARK  105  A    between atoms: _289  and  _292
REMARK  106  A    between atoms: _292  and  _293
REMARK  107  A    between atoms: _299  and  _301
REMARK  108  A    between atoms: _301  and  _302
REMARK  109  A    between atoms: _304  and  _306
REMARK  110  A    between atoms: _306  and  _307
REMARK  111  A    between atoms: _306  and  _309
REMARK  112  A    between atoms: _309  and  _310
REMARK  113  A    between atoms: _320  and  _322
REMARK  114  A    between atoms: _322  and  _323
REMARK  115  A    between atoms: _326  and  _328
REMARK  116  A    between atoms: _328  and  _329
REMARK  117  A    between atoms: _331  and  _333
REMARK  118  A    between atoms: _333  and  _334
REMARK  119  A    between atoms: _333  and  _336
REMARK  120  A    between atoms: _336  and  _337
REMARK  121  A    between atoms: _341  and  _342
REMARK  122  A    between atoms: _348  and  _349
REMARK  123  A    between atoms: _354  and  _356
REMARK  124  A    between atoms: _356  and  _357
REMARK  125  A    between atoms: _356  and  _359
REMARK  126  A    between atoms: _359  and  _360
REMARK  127  A    between atoms: _360  and  _361
REMARK  128  A    between atoms: _366  and  _368
REMARK  129  A    between atoms: _368  and  _369
REMARK  130  A    between atoms: _368  and  _371
REMARK  131  A    between atoms: _371  and  _372
REMARK  132  A    between atoms: _372  and  _373
REMARK  133  A    between atoms: _376  and  _378
REMARK  134  A    between atoms: _378  and  _379
REMARK  135  A    between atoms: _378  and  _381
REMARK  136  A    between atoms: _381  and  _382
REMARK  137  A    between atoms: _382  and  _383
REMARK  138  A    between atoms: _385  and  _387
REMARK  139  A    between atoms: _387  and  _388
REMARK  140  A    between atoms: _387  and  _390
REMARK  141  A    between atoms: _390  and  _391
REMARK  142  A    between atoms: _396  and  _397
REMARK                            x       y       z     vdW  Elec       q    Type
REMARK                         _______ _______ _______ _____ _____    ______ ____
ROOT
ATOM      1  C   GLU A   2      79.284  16.893  27.443  0.00  0.00    +0.241 C 
ATOM      2  N   PHE A   3      79.937  17.525  28.418  0.00  0.00    -0.297 N 
ATOM      3  H   PHE A   3      79.544  18.412  28.793  0.00  0.00    +0.150 HD
ATOM      4  O   GLU A   2      79.781  15.998  26.753  0.00  0.00    -0.273 OA
ENDROOT
BRANCH   2   5
ATOM      5  CA  PHE A   3      81.174  17.019  28.972  0.00  0.00    +0.153 C 
BRANCH   5   6
ATOM      6  C   PHE A   3      81.417  17.637  30.314  0.00  0.00    +0.241 C 
ATOM      7  N   GLY A   4      82.057  16.884  31.195  0.00  0.00    -0.296 N 
ATOM      8  H   GLY A   4      82.384  15.935  30.922  0.00  0.00    +0.150 HD
ATOM      9  O   PHE A   3      81.032  18.767  30.550  0.00  0.00    -0.273 OA
BRANCH   7  10
ATOM     10  CA  GLY A   4      82.306  17.372  32.539  0.00  0.00    +0.163 C 
BRANCH  10  11
ATOM     11  C   GLY A   4      83.280  16.530  33.316  0.00  0.00    +0.229 C 
ATOM     12  O   GLY A   4      83.672  15.431  32.906  0.00  0.00    -0.286 OA
ENDBRANCH  10  11
ENDBRANCH   7  10
ENDBRANCH   5   6
BRANCH   5  13
ATOM     13  CB  PHE A   3      82.366  17.202  28.033  0.00  0.00    +0.055 C 
BRANCH  13  14
ATOM     14  CG  PHE A   3      82.868  18.622  27.898  0.00  0.00    -0.020 A 
ATOM     15  CD2 PHE A   3      84.141  18.961  28.334  0.00  0.00    -0.004 A 
ATOM     16  CE2 PHE A   3      84.631  20.257  28.196  0.00  0.00    -0.000 A 
ATOM     17  CZ  PHE A   3      83.869  21.214  27.592  0.00  0.00    -0.000 A 
ATOM     18  CE1 PHE A   3      82.609  20.900  27.137  0.00  0.00    -0.000 A 
ATOM     19  CD1 PHE A   3      82.107  19.593  27.295  0.00  0.00    -0.004 A 
ENDBRANCH  13  14
ENDBRANCH   5  13
ENDBRANCH   2   5
BRANCH   1  20
ATOM     20  CA  GLU A   2      77.843  17.329  27.231  0.00  0.00    +0.149 C 
BRANCH  20  23
ATOM     21  C   GLU A   1      76.774  18.492  25.362  0.00  0.00    +0.238 C 
ATOM     22  O   GLU A   1      75.897  18.981  26.050  0.00  0.00    -0.274 OA
ATOM     23  N   GLU A   2      77.604  17.552  25.803  0.00  0.00    -0.297 N 
ATOM     24  H   GLU A   2      78.100  16.955  25.111  0.00  0.00    +0.150 HD
BRANCH  21  25
ATOM     25  CA  GLU A   1      76.850  18.866  23.890  0.00  0.00    +0.145 C 
BRANCH  25  26
ATOM     26  N   GLU A   1      77.939  18.231  23.169  0.00  0.00    -0.238 NA
ATOM     27  H   GLU A   1      77.769  17.361  22.625  0.00  0.00    +0.142 HD
ENDBRANCH  25  26
BRANCH  25  28
ATOM     28  CB  GLU A   1      75.500  18.678  23.214  0.00  0.00    +0.038 C 
BRANCH  28  29
ATOM     29  CG  GLU A   1      75.006  17.272  23.292  0.00  0.00    +0.116 C 
BRANCH  29  30
ATOM     30  CD  GLU A   1      73.616  17.048  22.741  0.00  0.00    +0.365 C 
ATOM     31  OE2 GLU A   1      73.177  15.876  22.888  0.00  0.00    -0.246 OA
ATOM     32  OE1 GLU A   1      72.965  18.000  22.198  0.00  0.00    -0.246 OA
ENDBRANCH  29  30
ENDBRANCH  28  29
ENDBRANCH  25  28
ENDBRANCH  21  25
ENDBRANCH  20  23
BRANCH  20  33
ATOM     33  CB  GLU A   2      77.001  16.204  27.851  0.00  0.00    +0.041 C 
BRANCH  33  34
ATOM     34  CG  GLU A   2      75.513  16.252  27.776  0.00  0.00    +0.116 C 
BRANCH  34  35
ATOM     35  CD  GLU A   2      74.883  15.124  28.587  0.00  0.00    +0.365 C 
ATOM     36  OE2 GLU A   2      75.617  14.409  29.283  0.00  0.00    -0.246 OA
ATOM     37  OE1 GLU A   2      73.641  14.972  28.559  0.00  0.00    -0.246 OA
ENDBRANCH  34  35
ENDBRANCH  33  34
ENDBRANCH  20  33
ENDBRANCH   1  20
TORSDOF 16
REMARK  Name = ../refined-set-2016/1uz4/1uz4_pocket.pdb
REMARK  142 active torsions:
REMARK  status: ('A' for Active; 'I' for Inactive)
REMARK    1  A    between atoms: _1  and  _3
REMARK    2  A    between atoms: _3  and  _4
REMARK    3  A    between atoms: _3  and  _6
REMARK    4  A    between atoms: _6  and  _7
REMARK    5  A    between atoms: _12  and  _14
REMARK    6  A    between atoms: _14  and  _15
REMARK    7  A    between atoms: _14  and  _17
REMARK    8  A    between atoms: _17  and  _18
REMARK    9  A    between atoms: _28  and  _30
REMARK   10  A    between atoms: _30  and  _31
REMARK   11  A    between atoms: _30  and  _33
REMARK   12  A    between atoms: _34  and  _35
REMARK   13  A    between atoms: _35  and  _36
REMARK   14  A    between atoms: _45  and  _47
REMARK   15  A    between atoms: _47  and  _48
REMARK   16  A    between atoms: _47  and  _50
REMARK   17  A    between atoms: _50  and  _51
REMARK   18  A    between atoms: _56  and  _57
REMARK   19  A    between atoms: _59  and  _61
REMARK   20  A    between atoms: _61  and  _62
REMARK   21  A    between atoms: _61  and  _64
REMARK   22  A    between atoms: _64  and  _65
REMARK   23  A    between atoms: _70  and  _72
REMARK   24  A    between atoms: _72  and  _73
REMARK   25  A    between atoms: _72  and  _75
REMARK   26  A    between atoms: _75  and  _76
REMARK   27  A    between atoms: _82  and  _84
REMARK   28  A    between atoms: _84  and  _85
REMARK   29  A    between atoms: _84  and  _87
REMARK   30  A    between atoms: _87  and  _88
REMARK   31  A    between atoms: _98  and  _100
REMARK   32  A    between atoms: _100  and  _101
REMARK   33  A    between atoms: _100  and  _103
REMARK   34  A    between atoms: _103  and  _104
REMARK   35  A    between atoms: _104  and  _105
REMARK   36  A    between atoms: _110  and  _112
REMARK   37  A    between atoms: _112  and  _113
REMARK   38  A    between atoms: _112  and  _115
REMARK   39  A    between atoms: _115  and  _116
REMARK   40  A    between atoms: _126  and  _128
REMARK   41  A    between atoms: _128  and  _129
REMARK   42  A    between atoms: _128  and  _131
REMARK   43  A    between atoms: _131  and  _132
REMARK   44  A    between atoms: _134  and  _136
REMARK   45  A    between atoms: _136  and  _137
REMARK   46  A    between atoms: _136  and  _139
REMARK   47  A    between atoms: _139  and  _140
REMARK   48  A    between atoms: _145  and  _147
REMARK   49  A    between atoms: _147  and  _148
REMARK   50  A    between atoms: _147  and  _150
REMARK   51  A    between atoms: _150  and  _151
REMARK   52  A    between atoms: _151  and  _152
REMARK   53  A    between atoms: _155  and  _157
REMARK   54  A    between atoms: _157  and  _158
REMARK   55  A    between atoms: _157  and  _160
REMARK   56  A    between atoms: _160  and  _161
REMARK   57  A    between atoms: _161  and  _162
REMARK   58  A    between atoms: _162  and  _163
REMARK   59  A    between atoms: _172  and  _174
REMARK   60  A    between atoms: _174  and  _175
REMARK   61  A    between atoms: _177  and  _179
REMARK   62  A    between atoms: _179  and  _180
REMARK   63  A    between atoms: _179  and  _182
REMARK   64  A    between atoms: _182  and  _183
REMARK   65  A    between atoms: _183  and  _184
REMARK   66  A    between atoms: _187  and  _189
REMARK   67  A    between atoms: _189  and  _190
REMARK   68  A    between atoms: _189  and  _192
REMARK   69  A    between atoms: _192  and  _193
REMARK   70  A    between atoms: _198  and  _200
REMARK   71  A    between atoms: _200  and  _201
REMARK   72  A    between atoms: _200  and  _203
REMARK   73  A    between atoms: _203  and  _204
REMARK   74  A    between atoms: _204  and  _205
REMARK   75  A    between atoms: _207  and  _209
REMARK   76  A    between atoms: _209  and  _210
REMARK   77  A    between atoms: _209  and  _212
REMARK   78  A    between atoms: _212  and  _213
REMARK   79  A    between atoms: _223  and  _225
REMARK   80  A    between atoms: _225  and  _226
REMARK   81  A    between atoms: _225  and  _228
REMARK   82  A    between atoms: _228  and  _229
REMARK   83  A    between atoms: _229  and  _230
REMARK   84  A    between atoms: _230  and  _231
REMARK   85  A    between atoms: _240  and  _242
REMARK   86  A    between atoms: _242  and  _243
REMARK   87  A    between atoms: _242  and  _245
REMARK   88  A    between atoms: _245  and  _246
REMARK   89  A    between atoms: _251  and  _253
REMARK   90  A    between atoms: _253  and  _254
REMARK   91  A    between atoms: _253  and  _256
REMARK   92  A    between atoms: _256  and  _257
REMARK   93  A    between atoms: _267  and  _269
REMARK   94  A    between atoms: _269  and  _270
REMARK   95  A    between atoms: _269  and  _272
REMARK   96  A    between atoms: _272  and  _273
REMARK   97  A    between atoms: _273  and  _274
REMARK   98  A    between atoms: _277  and  _279
REMARK   99  A    between atoms: _279  and  _280
REMARK  100  A    between atoms: _279  and  _282
REMARK  101  A    between atoms: _282  and  _283
REMARK  102  A    between atoms: _283  and  _284
REMARK  103  A    between atoms: _287  and  _289
REMARK  104  A    between atoms: _289  and  _290
REMARK  105  A    between atoms: _289  and  _292
REMARK  106  A    between atoms: _292  and  _293
REMARK  107  A    between atoms: _299  and  _301
REMARK  108  A    between atoms: _301  and  _302
REMARK  109  A    between atoms: _304  and  _306
REMARK  110  A    between atoms: _306  and  _307
REMARK  111  A    between atoms: _306  and  _309
REMARK  112  A    between atoms: _309  and  _310
REMARK  113  A    between atoms: _320  and  _322
REMARK  114  A    between atoms: _322  and  _323
REMARK  115  A    between atoms: _326  and  _328
REMARK  116  A    between atoms: _328  and  _329
REMARK  117  A    between atoms: _331  and  _333
REMARK  118  A    between atoms: _333  and  _334
REMARK  119  A    between atoms: _333  and  _336
REMARK  120  A    between atoms: _336  and  _337
REMARK  121  A    between atoms: _341  and  _342
REMARK  122  A    between atoms: _348  and  _349
REMARK  123  A    between atoms: _354  and  _356
REMARK  124  A    between atoms: _356  and  _357
REMARK  125  A    between atoms: _356  and  _359
REMARK  126  A    between atoms: _359  and  _360
REMARK  127  A    between atoms: _360  and  _361
REMARK  128  A    between atoms: _366  and  _368
REMARK  129  A    between atoms: _368  and  _369
REMARK  130  A    between atoms: _368  and  _371
REMARK  131  A    between atoms: _371  and  _372
REMARK  132  A    between atoms: _372  and  _373
REMARK  133  A    between atoms: _376  and  _378
REMARK  134  A    between atoms: _378  and  _379
REMARK  135  A    between atoms: _378  and  _381
REMARK  136  A    between atoms: _381  and  _382
REMARK  137  A    between atoms: _382  and  _383
REMARK  138  A    between atoms: _385  and  _387
REMARK  139  A    between atoms: _387  and  _388
REMARK  140  A    between atoms: _387  and  _390
REMARK  141  A    between atoms: _390  and  _391
REMARK  142  A    between atoms: _396  and  _397
REMARK                            x       y       z     vdW  Elec       q    Type
REMARK                         _______ _______ _______ _____ _____    ______ ____
ROOT
ATOM      1  CA  TRP A   1      77.729  19.764  31.815  0.00  0.00    +0.149 C 
ENDROOT
BRANCH   1   2
ATOM      2  C   TRP A   1      78.396  19.927  33.182  0.00  0.00    +0.239 C 
ATOM      3  N   ALA A   2      77.887  20.795  34.050  0.00  0.00    -0.298 N 
ATOM      4  H   ALA A   2      78.422  20.950  34.928  0.00  0.00    +0.150 HD
ATOM      5  O   TRP A   1      79.419  19.274  33.435  0.00  0.00    -0.274 OA
BRANCH   3   6
ATOM      6  CA  ALA A   2      76.639  21.559  33.888  0.00  0.00    +0.137 C 
ATOM      7  CB  ALA A   2      75.415  20.727  34.319  0.00  0.00    +0.030 C 
BRANCH   6   8
ATOM      8  C   ALA A   2      76.690  22.821  34.710  0.00  0.00    +0.227 C 
ATOM      9  O   ALA A   2      77.685  23.078  35.375  0.00  0.00    -0.286 OA
ENDBRANCH   6   8
ENDBRANCH   3   6
ENDBRANCH   1   2
BRANCH   1  10
ATOM     10  N   TRP A   1      78.639  20.352  30.838  0.00  0.00    -0.238 NA
ATOM     11  H   TRP A   1      79.512  19.840  30.599  0.00  0.00    +0.142 HD
ENDBRANCH   1  10
BRANCH   1  12
ATOM     12  CB  TRP A   1      77.466  18.263  31.551  0.00  0.00    +0.054 C 
BRANCH  12  13
ATOM     13  CG  TRP A   1      76.469  17.727  32.495  0.00  0.00    -0.002 A 
ATOM     14  CD1 TRP A   1      76.653  17.401  33.822  0.00  0.00    +0.068 A 
ATOM     15  NE1 TRP A   1      75.466  16.969  34.364  0.00  0.00    -0.352 N 
ATOM     16  HE1 TRP A   1      75.330  16.661  35.348  0.00  0.00    +0.166 HD
ATOM     17  CE2 TRP A   1      74.488  17.008  33.399  0.00  0.00    +0.056 A 
ATOM     18  CZ2 TRP A   1      73.149  16.645  33.459  0.00  0.00    +0.017 A 
ATOM     19  CH2 TRP A   1      72.391  16.763  32.328  0.00  0.00    +0.001 A 
ATOM     20  CZ3 TRP A   1      72.939  17.216  31.143  0.00  0.00    +0.000 A 
ATOM     21  CE3 TRP A   1      74.282  17.560  31.061  0.00  0.00    +0.001 A 
ATOM     22  CD2 TRP A   1      75.085  17.468  32.212  0.00  0.00    +0.013 A 
ENDBRANCH  12  13
ENDBRANCH   1  12
TORSDOF 6
REMARK  Name = ../refined-set-2016/1uz4/1uz4_pocket.pdb
REMARK  142 active torsions:
REMARK  status: ('A' for Active; 'I' for Inactive)
REMARK    1  A    between atoms: _1  and  _3
REMARK    2  A    between atoms: _3  and  _4
REMARK    3  A    between atoms: _3  and  _6
REMARK    4  A    between atoms: _6  and  _7
REMARK    5  A    between atoms: _12  and  _14
REMARK    6  A    between atoms: _14  and  _15
REMARK    7  A    between atoms: _14  and  _17
REMARK    8  A    between atoms: _17  and  _18
REMARK    9  A    between atoms: _28  and  _30
REMARK   10  A    between atoms: _30  and  _31
REMARK   11  A    between atoms: _30  and  _33
REMARK   12  A    between atoms: _34  and  _35
REMARK   13  A    between atoms: _35  and  _36
REMARK   14  A    between atoms: _45  and  _47
REMARK   15  A    between atoms: _47  and  _48
REMARK   16  A    between atoms: _47  and  _50
REMARK   17  A    between atoms: _50  and  _51
REMARK   18  A    between atoms: _56  and  _57
REMARK   19  A    between atoms: _59  and  _61
REMARK   20  A    between atoms: _61  and  _62
REMARK   21  A    between atoms: _61  and  _64
REMARK   22  A    between atoms: _64  and  _65
REMARK   23  A    between atoms: _70  and  _72
REMARK   24  A    between atoms: _72  and  _73
REMARK   25  A    between atoms: _72  and  _75
REMARK   26  A    between atoms: _75  and  _76
REMARK   27  A    between atoms: _82  and  _84
REMARK   28  A    between atoms: _84  and  _85
REMARK   29  A    between atoms: _84  and  _87
REMARK   30  A    between atoms: _87  and  _88
REMARK   31  A    between atoms: _98  and  _100
REMARK   32  A    between atoms: _100  and  _101
REMARK   33  A    between atoms: _100  and  _103
REMARK   34  A    between atoms: _103  and  _104
REMARK   35  A    between atoms: _104  and  _105
REMARK   36  A    between atoms: _110  and  _112
REMARK   37  A    between atoms: _112  and  _113
REMARK   38  A    between atoms: _112  and  _115
REMARK   39  A    between atoms: _115  and  _116
REMARK   40  A    between atoms: _126  and  _128
REMARK   41  A    between atoms: _128  and  _129
REMARK   42  A    between atoms: _128  and  _131
REMARK   43  A    between atoms: _131  and  _132
REMARK   44  A    between atoms: _134  and  _136
REMARK   45  A    between atoms: _136  and  _137
REMARK   46  A    between atoms: _136  and  _139
REMARK   47  A    between atoms: _139  and  _140
REMARK   48  A    between atoms: _145  and  _147
REMARK   49  A    between atoms: _147  and  _148
REMARK   50  A    between atoms: _147  and  _150
REMARK   51  A    between atoms: _150  and  _151
REMARK   52  A    between atoms: _151  and  _152
REMARK   53  A    between atoms: _155  and  _157
REMARK   54  A    between atoms: _157  and  _158
REMARK   55  A    between atoms: _157  and  _160
REMARK   56  A    between atoms: _160  and  _161
REMARK   57  A    between atoms: _161  and  _162
REMARK   58  A    between atoms: _162  and  _163
REMARK   59  A    between atoms: _172  and  _174
REMARK   60  A    between atoms: _174  and  _175
REMARK   61  A    between atoms: _177  and  _179
REMARK   62  A    between atoms: _179  and  _180
REMARK   63  A    between atoms: _179  and  _182
REMARK   64  A    between atoms: _182  and  _183
REMARK   65  A    between atoms: _183  and  _184
REMARK   66  A    between atoms: _187  and  _189
REMARK   67  A    between atoms: _189  and  _190
REMARK   68  A    between atoms: _189  and  _192
REMARK   69  A    between atoms: _192  and  _193
REMARK   70  A    between atoms: _198  and  _200
REMARK   71  A    between atoms: _200  and  _201
REMARK   72  A    between atoms: _200  and  _203
REMARK   73  A    between atoms: _203  and  _204
REMARK   74  A    between atoms: _204  and  _205
REMARK   75  A    between atoms: _207  and  _209
REMARK   76  A    between atoms: _209  and  _210
REMARK   77  A    between atoms: _209  and  _212
REMARK   78  A    between atoms: _212  and  _213
REMARK   79  A    between atoms: _223  and  _225
REMARK   80  A    between atoms: _225  and  _226
REMARK   81  A    between atoms: _225  and  _228
REMARK   82  A    between atoms: _228  and  _229
REMARK   83  A    between atoms: _229  and  _230
REMARK   84  A    between atoms: _230  and  _231
REMARK   85  A    between atoms: _240  and  _242
REMARK   86  A    between atoms: _242  and  _243
REMARK   87  A    between atoms: _242  and  _245
REMARK   88  A    between atoms: _245  and  _246
REMARK   89  A    between atoms: _251  and  _253
REMARK   90  A    between atoms: _253  and  _254
REMARK   91  A    between atoms: _253  and  _256
REMARK   92  A    between atoms: _256  and  _257
REMARK   93  A    between atoms: _267  and  _269
REMARK   94  A    between atoms: _269  and  _270
REMARK   95  A    between atoms: _269  and  _272
REMARK   96  A    between atoms: _272  and  _273
REMARK   97  A    between atoms: _273  and  _274
REMARK   98  A    between atoms: _277  and  _279
REMARK   99  A    between atoms: _279  and  _280
REMARK  100  A    between atoms: _279  and  _282
REMARK  101  A    between atoms: _282  and  _283
REMARK  102  A    between atoms: _283  and  _284
REMARK  103  A    between atoms: _287  and  _289
REMARK  104  A    between atoms: _289  and  _290
REMARK  105  A    between atoms: _289  and  _292
REMARK  106  A    between atoms: _292  and  _293
REMARK  107  A    between atoms: _299  and  _301
REMARK  108  A    between atoms: _301  and  _302
REMARK  109  A    between atoms: _304  and  _306
REMARK  110  A    between atoms: _306  and  _307
REMARK  111  A    between atoms: _306  and  _309
REMARK  112  A    between atoms: _309  and  _310
REMARK  113  A    between atoms: _320  and  _322
REMARK  114  A    between atoms: _322  and  _323
REMARK  115  A    between atoms: _326  and  _328
REMARK  116  A    between atoms: _328  and  _329
REMARK  117  A    between atoms: _331  and  _333
REMARK  118  A    between atoms: _333  and  _334
REMARK  119  A    between atoms: _333  and  _336
REMARK  120  A    between atoms: _336  and  _337
REMARK  121  A    between atoms: _341  and  _342
REMARK  122  A    between atoms: _348  and  _349
REMARK  123  A    between atoms: _354  and  _356
REMARK  124  A    between atoms: _356  and  _357
REMARK  125  A    between atoms: _356  and  _359
REMARK  126  A    between atoms: _359  and  _360
REMARK  127  A    between atoms: _360  and  _361
REMARK  128  A    between atoms: _366  and  _368
REMARK  129  A    between atoms: _368  and  _369
REMARK  130  A    between atoms: _368  and  _371
REMARK  131  A    between atoms: _371  and  _372
REMARK  132  A    between atoms: _372  and  _373
REMARK  133  A    between atoms: _376  and  _378
REMARK  134  A    between atoms: _378  and  _379
REMARK  135  A    between atoms: _378  and  _381
REMARK  136  A    between atoms: _381  and  _382
REMARK  137  A    between atoms: _382  and  _383
REMARK  138  A    between atoms: _385  and  _387
REMARK  139  A    between atoms: _387  and  _388
REMARK  140  A    between atoms: _387  and  _390
REMARK  141  A    between atoms: _390  and  _391
REMARK  142  A    between atoms: _396  and  _397
REMARK                            x       y       z     vdW  Elec       q    Type
REMARK                         _______ _______ _______ _____ _____    ______ ____
ROOT
ATOM      1  C   PRO A   3      69.697  15.589  39.503  0.00  0.00    +0.244 C 
ATOM      2  O   PRO A   3      70.667  15.266  40.194  0.00  0.00    -0.273 OA
ATOM      3  N   PRO A   4      68.442  15.286  39.825  0.00  0.00    -0.272 N 
ATOM      4  CA  PRO A   4      68.094  14.620  41.095  0.00  0.00    +0.152 C 
ATOM      5  CB  PRO A   4      66.568  14.629  41.067  0.00  0.00    +0.031 C 
ATOM      6  CG  PRO A   4      66.247  15.838  40.290  0.00  0.00    +0.024 C 
ATOM      7  CD  PRO A   4      67.242  15.779  39.124  0.00  0.00    +0.094 C 
ENDROOT
BRANCH   1  11
ATOM      8  C   ASP A   2      71.916  17.743  38.823  0.00  0.00    +0.244 C 
ATOM      9  O   ASP A   2      71.262  18.352  39.654  0.00  0.00    -0.273 OA
ATOM     10  N   PRO A   3      71.351  16.797  38.069  0.00  0.00    -0.272 N 
ATOM     11  CA  PRO A   3      69.929  16.471  38.264  0.00  0.00    +0.152 C 
ATOM     12  CB  PRO A   3      69.515  15.775  36.967  0.00  0.00    +0.031 C 
ATOM     13  CG  PRO A   3      70.723  15.915  36.061  0.00  0.00    +0.024 C 
ATOM     14  CD  PRO A   3      71.940  15.988  37.001  0.00  0.00    +0.094 C 
BRANCH   8  15
ATOM     15  CA  ASP A   2      73.390  18.116  38.637  0.00  0.00    +0.160 C 
BRANCH  15  17
ATOM     16  C   GLY A   1      73.038  19.906  37.010  0.00  0.00    +0.240 C 
ATOM     17  N   ASP A   2      73.425  19.520  38.218  0.00  0.00    -0.297 N 
ATOM     18  H   ASP A   2      73.765  20.237  38.890  0.00  0.00    +0.150 HD
ATOM     19  O   GLY A   1      72.794  19.128  36.090  0.00  0.00    -0.274 OA
BRANCH  16  20
ATOM     20  CA  GLY A   1      72.887  21.402  36.835  0.00  0.00    +0.169 C 
BRANCH  20  21
ATOM     21  N   GLY A   1      72.505  22.070  38.071  0.00  0.00    -0.236 NA
ATOM     22  H   GLY A   1      73.159  22.763  38.488  0.00  0.00    +0.142 HD
ENDBRANCH  20  21
ENDBRANCH  16  20
ENDBRANCH  15  17
BRANCH  15  23
ATOM     23  CB  ASP A   2      74.116  18.022  39.958  0.00  0.00    +0.143 C 
BRANCH  23  24
ATOM     24  CG  ASP A   2      75.594  18.390  39.844  0.00  0.00    +0.367 C 
ATOM     25  OD2 ASP A   2      76.146  19.342  40.450  0.00  0.00    -0.246 OA
ATOM     26  OD1 ASP A   2      76.284  17.677  39.096  0.00  0.00    -0.246 OA
ENDBRANCH  23  24
ENDBRANCH  15  23
ENDBRANCH   8  15
ENDBRANCH   1  11
BRANCH   4  27
ATOM     27  C   PRO A   4      68.633  13.194  41.300  0.00  0.00    +0.241 C 
ATOM     28  O   PRO A   4      68.471  12.690  42.407  0.00  0.00    -0.273 OA
ATOM     29  N   GLN A   5      69.329  12.618  40.315  0.00  0.00    -0.297 N 
ATOM     30  H   GLN A   5      69.467  13.140  39.426  0.00  0.00    +0.150 HD
BRANCH  29  31
ATOM     31  CA  GLN A   5      69.899  11.288  40.444  0.00  0.00    +0.149 C 
BRANCH  31  32
ATOM     32  C   GLN A   5      71.391  11.310  40.812  0.00  0.00    +0.241 C 
ATOM     33  O   GLN A   5      72.015  10.265  40.960  0.00  0.00    -0.273 OA
ATOM     34  N   GLU A   6      71.978  12.500  40.935  0.00  0.00    -0.298 N 
ATOM     35  H   GLU A   6      71.405  13.350  40.761  0.00  0.00    +0.150 HD
BRANCH  34  36
ATOM     36  CA  GLU A   6      73.369  12.675  41.298  0.00  0.00    +0.137 C 
BRANCH  36  37
ATOM     37  C   GLU A   6      73.505  13.674  42.433  0.00  0.00    +0.227 C 
ATOM     38  O   GLU A   6      72.704  14.605  42.580  0.00  0.00    -0.286 OA
ENDBRANCH  36  37
BRANCH  36  39
ATOM     39  CB  GLU A   6      74.211  13.089  40.073  0.00  0.00    +0.039 C 
BRANCH  39  40
ATOM     40  CG  GLU A   6      74.494  11.897  39.173  0.00  0.00    +0.116 C 
BRANCH  40  41
ATOM     41  CD  GLU A   6      75.039  12.209  37.792  0.00  0.00    +0.365 C 
ATOM     42  OE2 GLU A   6      75.009  13.383  37.321  0.00  0.00    -0.246 OA
ATOM     43  OE1 GLU A   6      75.482  11.214  37.159  0.00  0.00    -0.246 OA
ENDBRANCH  40  41
ENDBRANCH  39  40
ENDBRANCH  36  39
ENDBRANCH  34  36
ENDBRANCH  31  32
BRANCH  31  44
ATOM     44  CB  GLN A   5      69.660  10.473  39.140  0.00  0.00    +0.039 C 
BRANCH  44  45
ATOM     45  CG  GLN A   5      70.733  10.468  38.071  0.00  0.00    +0.087 C 
BRANCH  45  46
ATOM     46  CD  GLN A   5      71.044  11.796  37.440  0.00  0.00    +0.219 C 
ATOM     47  OE1 GLN A   5      70.454  12.805  37.798  0.00  0.00    -0.275 OA
ATOM     48  NE2 GLN A   5      71.955  11.794  36.445  0.00  0.00    -0.329 N 
ATOM     49 HE21 GLN A   5      72.430  10.909  36.177  0.00  0.00    +0.145 HD
ATOM     50 HE22 GLN A   5      72.182  12.678  35.946  0.00  0.00    +0.145 HD
ENDBRANCH  45  46
ENDBRANCH  44  45
ENDBRANCH  31  44
ENDBRANCH  29  31
ENDBRANCH   4  27
TORSDOF 18
REMARK  Name = ../refined-set-2016/1uz4/1uz4_pocket.pdb
REMARK  142 active torsions:
REMARK  status: ('A' for Active; 'I' for Inactive)
REMARK    1  A    between atoms: _1  and  _3
REMARK    2  A    between atoms: _3  and  _4
REMARK    3  A    between atoms: _3  and  _6
REMARK    4  A    between atoms: _6  and  _7
REMARK    5  A    between atoms: _12  and  _14
REMARK    6  A    between atoms: _14  and  _15
REMARK    7  A    between atoms: _14  and  _17
REMARK    8  A    between atoms: _17  and  _18
REMARK    9  A    between atoms: _28  and  _30
REMARK   10  A    between atoms: _30  and  _31
REMARK   11  A    between atoms: _30  and  _33
REMARK   12  A    between atoms: _34  and  _35
REMARK   13  A    between atoms: _35  and  _36
REMARK   14  A    between atoms: _45  and  _47
REMARK   15  A    between atoms: _47  and  _48
REMARK   16  A    between atoms: _47  and  _50
REMARK   17  A    between atoms: _50  and  _51
REMARK   18  A    between atoms: _56  and  _57
REMARK   19  A    between atoms: _59  and  _61
REMARK   20  A    between atoms: _61  and  _62
REMARK   21  A    between atoms: _61  and  _64
REMARK   22  A    between atoms: _64  and  _65
REMARK   23  A    between atoms: _70  and  _72
REMARK   24  A    between atoms: _72  and  _73
REMARK   25  A    between atoms: _72  and  _75
REMARK   26  A    between atoms: _75  and  _76
REMARK   27  A    between atoms: _82  and  _84
REMARK   28  A    between atoms: _84  and  _85
REMARK   29  A    between atoms: _84  and  _87
REMARK   30  A    between atoms: _87  and  _88
REMARK   31  A    between atoms: _98  and  _100
REMARK   32  A    between atoms: _100  and  _101
REMARK   33  A    between atoms: _100  and  _103
REMARK   34  A    between atoms: _103  and  _104
REMARK   35  A    between atoms: _104  and  _105
REMARK   36  A    between atoms: _110  and  _112
REMARK   37  A    between atoms: _112  and  _113
REMARK   38  A    between atoms: _112  and  _115
REMARK   39  A    between atoms: _115  and  _116
REMARK   40  A    between atoms: _126  and  _128
REMARK   41  A    between atoms: _128  and  _129
REMARK   42  A    between atoms: _128  and  _131
REMARK   43  A    between atoms: _131  and  _132
REMARK   44  A    between atoms: _134  and  _136
REMARK   45  A    between atoms: _136  and  _137
REMARK   46  A    between atoms: _136  and  _139
REMARK   47  A    between atoms: _139  and  _140
REMARK   48  A    between atoms: _145  and  _147
REMARK   49  A    between atoms: _147  and  _148
REMARK   50  A    between atoms: _147  and  _150
REMARK   51  A    between atoms: _150  and  _151
REMARK   52  A    between atoms: _151  and  _152
REMARK   53  A    between atoms: _155  and  _157
REMARK   54  A    between atoms: _157  and  _158
REMARK   55  A    between atoms: _157  and  _160
REMARK   56  A    between atoms: _160  and  _161
REMARK   57  A    between atoms: _161  and  _162
REMARK   58  A    between atoms: _162  and  _163
REMARK   59  A    between atoms: _172  and  _174
REMARK   60  A    between atoms: _174  and  _175
REMARK   61  A    between atoms: _177  and  _179
REMARK   62  A    between atoms: _179  and  _180
REMARK   63  A    between atoms: _179  and  _182
REMARK   64  A    between atoms: _182  and  _183
REMARK   65  A    between atoms: _183  and  _184
REMARK   66  A    between atoms: _187  and  _189
REMARK   67  A    between atoms: _189  and  _190
REMARK   68  A    between atoms: _189  and  _192
REMARK   69  A    between atoms: _192  and  _193
REMARK   70  A    between atoms: _198  and  _200
REMARK   71  A    between atoms: _200  and  _201
REMARK   72  A    between atoms: _200  and  _203
REMARK   73  A    between atoms: _203  and  _204
REMARK   74  A    between atoms: _204  and  _205
REMARK   75  A    between atoms: _207  and  _209
REMARK   76  A    between atoms: _209  and  _210
REMARK   77  A    between atoms: _209  and  _212
REMARK   78  A    between atoms: _212  and  _213
REMARK   79  A    between atoms: _223  and  _225
REMARK   80  A    between atoms: _225  and  _226
REMARK   81  A    between atoms: _225  and  _228
REMARK   82  A    between atoms: _228  and  _229
REMARK   83  A    between atoms: _229  and  _230
REMARK   84  A    between atoms: _230  and  _231
REMARK   85  A    between atoms: _240  and  _242
REMARK   86  A    between atoms: _242  and  _243
REMARK   87  A    between atoms: _242  and  _245
REMARK   88  A    between atoms: _245  and  _246
REMARK   89  A    between atoms: _251  and  _253
REMARK   90  A    between atoms: _253  and  _254
REMARK   91  A    between atoms: _253  and  _256
REMARK   92  A    between atoms: _256  and  _257
REMARK   93  A    between atoms: _267  and  _269
REMARK   94  A    between atoms: _269  and  _270
REMARK   95  A    between atoms: _269  and  _272
REMARK   96  A    between atoms: _272  and  _273
REMARK   97  A    between atoms: _273  and  _274
REMARK   98  A    between atoms: _277  and  _279
REMARK   99  A    between atoms: _279  and  _280
REMARK  100  A    between atoms: _279  and  _282
REMARK  101  A    between atoms: _282  and  _283
REMARK  102  A    between atoms: _283  and  _284
REMARK  103  A    between atoms: _287  and  _289
REMARK  104  A    between atoms: _289  and  _290
REMARK  105  A    between atoms: _289  and  _292
REMARK  106  A    between atoms: _292  and  _293
REMARK  107  A    between atoms: _299  and  _301
REMARK  108  A    between atoms: _301  and  _302
REMARK  109  A    between atoms: _304  and  _306
REMARK  110  A    between atoms: _306  and  _307
REMARK  111  A    between atoms: _306  and  _309
REMARK  112  A    between atoms: _309  and  _310
REMARK  113  A    between atoms: _320  and  _322
REMARK  114  A    between atoms: _322  and  _323
REMARK  115  A    between atoms: _326  and  _328
REMARK  116  A    between atoms: _328  and  _329
REMARK  117  A    between atoms: _331  and  _333
REMARK  118  A    between atoms: _333  and  _334
REMARK  119  A    between atoms: _333  and  _336
REMARK  120  A    between atoms: _336  and  _337
REMARK  121  A    between atoms: _341  and  _342
REMARK  122  A    between atoms: _348  and  _349
REMARK  123  A    between atoms: _354  and  _356
REMARK  124  A    between atoms: _356  and  _357
REMARK  125  A    between atoms: _356  and  _359
REMARK  126  A    between atoms: _359  and  _360
REMARK  127  A    between atoms: _360  and  _361
REMARK  128  A    between atoms: _366  and  _368
REMARK  129  A    between atoms: _368  and  _369
REMARK  130  A    between atoms: _368  and  _371
REMARK  131  A    between atoms: _371  and  _372
REMARK  132  A    between atoms: _372  and  _373
REMARK  133  A    between atoms: _376  and  _378
REMARK  134  A    between atoms: _378  and  _379
REMARK  135  A    between atoms: _378  and  _381
REMARK  136  A    between atoms: _381  and  _382
REMARK  137  A    between atoms: _382  and  _383
REMARK  138  A    between atoms: _385  and  _387
REMARK  139  A    between atoms: _387  and  _388
REMARK  140  A    between atoms: _387  and  _390
REMARK  141  A    between atoms: _390  and  _391
REMARK  142  A    between atoms: _396  and  _397
REMARK                            x       y       z     vdW  Elec       q    Type
REMARK                         _______ _______ _______ _____ _____    ______ ____
ROOT
ATOM      1  CA  TYR A   2      79.664  18.120  38.024  0.00  0.00    +0.141 C 
ENDROOT
BRANCH   1   4
ATOM      2  C   MET A   1      79.853  17.065  40.214  0.00  0.00    +0.238 C 
ATOM      3  O   MET A   1      81.092  17.072  40.187  0.00  0.00    -0.274 OA
ATOM      4  N   TYR A   2      79.109  17.601  39.260  0.00  0.00    -0.298 N 
ATOM      5  H   TYR A   2      78.080  17.653  39.403  0.00  0.00    +0.150 HD
BRANCH   2   6
ATOM      6  CA  MET A   1      79.071  16.462  41.404  0.00  0.00    +0.146 C 
BRANCH   6   7
ATOM      7  N   MET A   1      78.223  17.420  42.103  0.00  0.00    -0.238 NA
ATOM      8  H   MET A   1      77.196  17.260  42.148  0.00  0.00    +0.142 HD
ENDBRANCH   6   7
BRANCH   6   9
ATOM      9  CB  MET A   1      78.262  15.246  40.960  0.00  0.00    +0.038 C 
BRANCH   9  10
ATOM     10  CG  MET A   1      79.083  14.235  40.287  0.00  0.00    +0.060 C 
BRANCH  10  11
ATOM     11  SD  MET A   1      78.109  12.770  39.826  0.00  0.00    -0.139 S 
ATOM     12  CE  MET A   1      77.942  12.025  41.387  0.00  0.00    +0.069 C 
ENDBRANCH  10  11
ENDBRANCH   9  10
ENDBRANCH   6   9
ENDBRANCH   2   6
ENDBRANCH   1   4
BRANCH   1  13
ATOM     13  C   TYR A   2      79.363  19.598  37.778  0.00  0.00    +0.227 C 
ATOM     14  O   TYR A   2      79.964  20.204  36.903  0.00  0.00    -0.286 OA
ENDBRANCH   1  13
BRANCH   1  15
ATOM     15  CB  TYR A   2      79.128  17.325  36.852  0.00  0.00    +0.054 C 
BRANCH  15  16
ATOM     16  CG  TYR A   2      79.717  15.932  36.718  0.00  0.00    -0.020 A 
ATOM     17  CD2 TYR A   2      81.094  15.751  36.680  0.00  0.00    -0.001 A 
ATOM     18  CE2 TYR A   2      81.657  14.486  36.495  0.00  0.00    +0.036 A 
ATOM     19  CZ  TYR A   2      80.834  13.409  36.321  0.00  0.00    +0.134 A 
ATOM     20  CE1 TYR A   2      79.468  13.570  36.345  0.00  0.00    +0.036 A 
ATOM     21  CD1 TYR A   2      78.919  14.840  36.530  0.00  0.00    -0.001 A 
BRANCH  19  22
ATOM     22  OH  TYR A   2      81.396  12.175  36.064  0.00  0.00    -0.506 OA
ATOM     23  HH  TYR A   2      81.109  11.863  35.169  0.00  0.00    +0.292 HD
ENDBRANCH  19  22
ENDBRANCH  15  16
ENDBRANCH   1  15
TORSDOF 10
REMARK  Name = ../refined-set-2016/1uz4/1uz4_pocket.pdb
REMARK  142 active torsions:
REMARK  status: ('A' for Active; 'I' for Inactive)
REMARK    1  A    between atoms: _1  and  _3
REMARK    2  A    between atoms: _3  and  _4
REMARK    3  A    between atoms: _3  and  _6
REMARK    4  A    between atoms: _6  and  _7
REMARK    5  A    between atoms: _12  and  _14
REMARK    6  A    between atoms: _14  and  _15
REMARK    7  A    between atoms: _14  and  _17
REMARK    8  A    between atoms: _17  and  _18
REMARK    9  A    between atoms: _28  and  _30
REMARK   10  A    between atoms: _30  and  _31
REMARK   11  A    between atoms: _30  and  _33
REMARK   12  A    between atoms: _34  and  _35
REMARK   13  A    between atoms: _35  and  _36
REMARK   14  A    between atoms: _45  and  _47
REMARK   15  A    between atoms: _47  and  _48
REMARK   16  A    between atoms: _47  and  _50
REMARK   17  A    between atoms: _50  and  _51
REMARK   18  A    between atoms: _56  and  _57
REMARK   19  A    between atoms: _59  and  _61
REMARK   20  A    between atoms: _61  and  _62
REMARK   21  A    between atoms: _61  and  _64
REMARK   22  A    between atoms: _64  and  _65
REMARK   23  A    between atoms: _70  and  _72
REMARK   24  A    between atoms: _72  and  _73
REMARK   25  A    between atoms: _72  and  _75
REMARK   26  A    between atoms: _75  and  _76
REMARK   27  A    between atoms: _82  and  _84
REMARK   28  A    between atoms: _84  and  _85
REMARK   29  A    between atoms: _84  and  _87
REMARK   30  A    between atoms: _87  and  _88
REMARK   31  A    between atoms: _98  and  _100
REMARK   32  A    between atoms: _100  and  _101
REMARK   33  A    between atoms: _100  and  _103
REMARK   34  A    between atoms: _103  and  _104
REMARK   35  A    between atoms: _104  and  _105
REMARK   36  A    between atoms: _110  and  _112
REMARK   37  A    between atoms: _112  and  _113
REMARK   38  A    between atoms: _112  and  _115
REMARK   39  A    between atoms: _115  and  _116
REMARK   40  A    between atoms: _126  and  _128
REMARK   41  A    between atoms: _128  and  _129
REMARK   42  A    between atoms: _128  and  _131
REMARK   43  A    between atoms: _131  and  _132
REMARK   44  A    between atoms: _134  and  _136
REMARK   45  A    between atoms: _136  and  _137
REMARK   46  A    between atoms: _136  and  _139
REMARK   47  A    between atoms: _139  and  _140
REMARK   48  A    between atoms: _145  and  _147
REMARK   49  A    between atoms: _147  and  _148
REMARK   50  A    between atoms: _147  and  _150
REMARK   51  A    between atoms: _150  and  _151
REMARK   52  A    between atoms: _151  and  _152
REMARK   53  A    between atoms: _155  and  _157
REMARK   54  A    between atoms: _157  and  _158
REMARK   55  A    between atoms: _157  and  _160
REMARK   56  A    between atoms: _160  and  _161
REMARK   57  A    between atoms: _161  and  _162
REMARK   58  A    between atoms: _162  and  _163
REMARK   59  A    between atoms: _172  and  _174
REMARK   60  A    between atoms: _174  and  _175
REMARK   61  A    between atoms: _177  and  _179
REMARK   62  A    between atoms: _179  and  _180
REMARK   63  A    between atoms: _179  and  _182
REMARK   64  A    between atoms: _182  and  _183
REMARK   65  A    between atoms: _183  and  _184
REMARK   66  A    between atoms: _187  and  _189
REMARK   67  A    between atoms: _189  and  _190
REMARK   68  A    between atoms: _189  and  _192
REMARK   69  A    between atoms: _192  and  _193
REMARK   70  A    between atoms: _198  and  _200
REMARK   71  A    between atoms: _200  and  _201
REMARK   72  A    between atoms: _200  and  _203
REMARK   73  A    between atoms: _203  and  _204
REMARK   74  A    between atoms: _204  and  _205
REMARK   75  A    between atoms: _207  and  _209
REMARK   76  A    between atoms: _209  and  _210
REMARK   77  A    between atoms: _209  and  _212
REMARK   78  A    between atoms: _212  and  _213
REMARK   79  A    between atoms: _223  and  _225
REMARK   80  A    between atoms: _225  and  _226
REMARK   81  A    between atoms: _225  and  _228
REMARK   82  A    between atoms: _228  and  _229
REMARK   83  A    between atoms: _229  and  _230
REMARK   84  A    between atoms: _230  and  _231
REMARK   85  A    between atoms: _240  and  _242
REMARK   86  A    between atoms: _242  and  _243
REMARK   87  A    between atoms: _242  and  _245
REMARK   88  A    between atoms: _245  and  _246
REMARK   89  A    between atoms: _251  and  _253
REMARK   90  A    between atoms: _253  and  _254
REMARK   91  A    between atoms: _253  and  _256
REMARK   92  A    between atoms: _256  and  _257
REMARK   93  A    between atoms: _267  and  _269
REMARK   94  A    between atoms: _269  and  _270
REMARK   95  A    between atoms: _269  and  _272
REMARK   96  A    between atoms: _272  and  _273
REMARK   97  A    between atoms: _273  and  _274
REMARK   98  A    between atoms: _277  and  _279
REMARK   99  A    between atoms: _279  and  _280
REMARK  100  A    between atoms: _279  and  _282
REMARK  101  A    between atoms: _282  and  _283
REMARK  102  A    between atoms: _283  and  _284
REMARK  103  A    between atoms: _287  and  _289
REMARK  104  A    between atoms: _289  and  _290
REMARK  105  A    between atoms: _289  and  _292
REMARK  106  A    between atoms: _292  and  _293
REMARK  107  A    between atoms: _299  and  _301
REMARK  108  A    between atoms: _301  and  _302
REMARK  109  A    between atoms: _304  and  _306
REMARK  110  A    between atoms: _306  and  _307
REMARK  111  A    between atoms: _306  and  _309
REMARK  112  A    between atoms: _309  and  _310
REMARK  113  A    between atoms: _320  and  _322
REMARK  114  A    between atoms: _322  and  _323
REMARK  115  A    between atoms: _326  and  _328
REMARK  116  A    between atoms: _328  and  _329
REMARK  117  A    between atoms: _331  and  _333
REMARK  118  A    between atoms: _333  and  _334
REMARK  119  A    between atoms: _333  and  _336
REMARK  120  A    between atoms: _336  and  _337
REMARK  121  A    between atoms: _341  and  _342
REMARK  122  A    between atoms: _348  and  _349
REMARK  123  A    between atoms: _354  and  _356
REMARK  124  A    between atoms: _356  and  _357
REMARK  125  A    between atoms: _356  and  _359
REMARK  126  A    between atoms: _359  and  _360
REMARK  127  A    between atoms: _360  and  _361
REMARK  128  A    between atoms: _366  and  _368
REMARK  129  A    between atoms: _368  and  _369
REMARK  130  A    between atoms: _368  and  _371
REMARK  131  A    between atoms: _371  and  _372
REMARK  132  A    between atoms: _372  and  _373
REMARK  133  A    between atoms: _376  and  _378
REMARK  134  A    between atoms: _378  and  _379
REMARK  135  A    between atoms: _378  and  _381
REMARK  136  A    between atoms: _381  and  _382
REMARK  137  A    between atoms: _382  and  _383
REMARK  138  A    between atoms: _385  and  _387
REMARK  139  A    between atoms: _387  and  _388
REMARK  140  A    between atoms: _387  and  _390
REMARK  141  A    between atoms: _390  and  _391
REMARK  142  A    between atoms: _396  and  _397
REMARK                            x       y       z     vdW  Elec       q    Type
REMARK                         _______ _______ _______ _____ _____    ______ ____
ROOT
ATOM      1  O   HOH     1      70.693  19.685  29.910  0.00  0.00    +0.000 OA
ENDROOT
TORSDOF 0
REMARK  Name = ../refined-set-2016/1uz4/1uz4_pocket.pdb
REMARK  142 active torsions:
REMARK  status: ('A' for Active; 'I' for Inactive)
REMARK    1  A    between atoms: _1  and  _3
REMARK    2  A    between atoms: _3  and  _4
REMARK    3  A    between atoms: _3  and  _6
REMARK    4  A    between atoms: _6  and  _7
REMARK    5  A    between atoms: _12  and  _14
REMARK    6  A    between atoms: _14  and  _15
REMARK    7  A    between atoms: _14  and  _17
REMARK    8  A    between atoms: _17  and  _18
REMARK    9  A    between atoms: _28  and  _30
REMARK   10  A    between atoms: _30  and  _31
REMARK   11  A    between atoms: _30  and  _33
REMARK   12  A    between atoms: _34  and  _35
REMARK   13  A    between atoms: _35  and  _36
REMARK   14  A    between atoms: _45  and  _47
REMARK   15  A    between atoms: _47  and  _48
REMARK   16  A    between atoms: _47  and  _50
REMARK   17  A    between atoms: _50  and  _51
REMARK   18  A    between atoms: _56  and  _57
REMARK   19  A    between atoms: _59  and  _61
REMARK   20  A    between atoms: _61  and  _62
REMARK   21  A    between atoms: _61  and  _64
REMARK   22  A    between atoms: _64  and  _65
REMARK   23  A    between atoms: _70  and  _72
REMARK   24  A    between atoms: _72  and  _73
REMARK   25  A    between atoms: _72  and  _75
REMARK   26  A    between atoms: _75  and  _76
REMARK   27  A    between atoms: _82  and  _84
REMARK   28  A    between atoms: _84  and  _85
REMARK   29  A    between atoms: _84  and  _87
REMARK   30  A    between atoms: _87  and  _88
REMARK   31  A    between atoms: _98  and  _100
REMARK   32  A    between atoms: _100  and  _101
REMARK   33  A    between atoms: _100  and  _103
REMARK   34  A    between atoms: _103  and  _104
REMARK   35  A    between atoms: _104  and  _105
REMARK   36  A    between atoms: _110  and  _112
REMARK   37  A    between atoms: _112  and  _113
REMARK   38  A    between atoms: _112  and  _115
REMARK   39  A    between atoms: _115  and  _116
REMARK   40  A    between atoms: _126  and  _128
REMARK   41  A    between atoms: _128  and  _129
REMARK   42  A    between atoms: _128  and  _131
REMARK   43  A    between atoms: _131  and  _132
REMARK   44  A    between atoms: _134  and  _136
REMARK   45  A    between atoms: _136  and  _137
REMARK   46  A    between atoms: _136  and  _139
REMARK   47  A    between atoms: _139  and  _140
REMARK   48  A    between atoms: _145  and  _147
REMARK   49  A    between atoms: _147  and  _148
REMARK   50  A    between atoms: _147  and  _150
REMARK   51  A    between atoms: _150  and  _151
REMARK   52  A    between atoms: _151  and  _152
REMARK   53  A    between atoms: _155  and  _157
REMARK   54  A    between atoms: _157  and  _158
REMARK   55  A    between atoms: _157  and  _160
REMARK   56  A    between atoms: _160  and  _161
REMARK   57  A    between atoms: _161  and  _162
REMARK   58  A    between atoms: _162  and  _163
REMARK   59  A    between atoms: _172  and  _174
REMARK   60  A    between atoms: _174  and  _175
REMARK   61  A    between atoms: _177  and  _179
REMARK   62  A    between atoms: _179  and  _180
REMARK   63  A    between atoms: _179  and  _182
REMARK   64  A    between atoms: _182  and  _183
REMARK   65  A    between atoms: _183  and  _184
REMARK   66  A    between atoms: _187  and  _189
REMARK   67  A    between atoms: _189  and  _190
REMARK   68  A    between atoms: _189  and  _192
REMARK   69  A    between atoms: _192  and  _193
REMARK   70  A    between atoms: _198  and  _200
REMARK   71  A    between atoms: _200  and  _201
REMARK   72  A    between atoms: _200  and  _203
REMARK   73  A    between atoms: _203  and  _204
REMARK   74  A    between atoms: _204  and  _205
REMARK   75  A    between atoms: _207  and  _209
REMARK   76  A    between atoms: _209  and  _210
REMARK   77  A    between atoms: _209  and  _212
REMARK   78  A    between atoms: _212  and  _213
REMARK   79  A    between atoms: _223  and  _225
REMARK   80  A    between atoms: _225  and  _226
REMARK   81  A    between atoms: _225  and  _228
REMARK   82  A    between atoms: _228  and  _229
REMARK   83  A    between atoms: _229  and  _230
REMARK   84  A    between atoms: _230  and  _231
REMARK   85  A    between atoms: _240  and  _242
REMARK   86  A    between atoms: _242  and  _243
REMARK   87  A    between atoms: _242  and  _245
REMARK   88  A    between atoms: _245  and  _246
REMARK   89  A    between atoms: _251  and  _253
REMARK   90  A    between atoms: _253  and  _254
REMARK   91  A    between atoms: _253  and  _256
REMARK   92  A    between atoms: _256  and  _257
REMARK   93  A    between atoms: _267  and  _269
REMARK   94  A    between atoms: _269  and  _270
REMARK   95  A    between atoms: _269  and  _272
REMARK   96  A    between atoms: _272  and  _273
REMARK   97  A    between atoms: _273  and  _274
REMARK   98  A    between atoms: _277  and  _279
REMARK   99  A    between atoms: _279  and  _280
REMARK  100  A    between atoms: _279  and  _282
REMARK  101  A    between atoms: _282  and  _283
REMARK  102  A    between atoms: _283  and  _284
REMARK  103  A    between atoms: _287  and  _289
REMARK  104  A    between atoms: _289  and  _290
REMARK  105  A    between atoms: _289  and  _292
REMARK  106  A    between atoms: _292  and  _293
REMARK  107  A    between atoms: _299  and  _301
REMARK  108  A    between atoms: _301  and  _302
REMARK  109  A    between atoms: _304  and  _306
REMARK  110  A    between atoms: _306  and  _307
REMARK  111  A    between atoms: _306  and  _309
REMARK  112  A    between atoms: _309  and  _310
REMARK  113  A    between atoms: _320  and  _322
REMARK  114  A    between atoms: _322  and  _323
REMARK  115  A    between atoms: _326  and  _328
REMARK  116  A    between atoms: _328  and  _329
REMARK  117  A    between atoms: _331  and  _333
REMARK  118  A    between atoms: _333  and  _334
REMARK  119  A    between atoms: _333  and  _336
REMARK  120  A    between atoms: _336  and  _337
REMARK  121  A    between atoms: _341  and  _342
REMARK  122  A    between atoms: _348  and  _349
REMARK  123  A    between atoms: _354  and  _356
REMARK  124  A    between atoms: _356  and  _357
REMARK  125  A    between atoms: _356  and  _359
REMARK  126  A    between atoms: _359  and  _360
REMARK  127  A    between atoms: _360  and  _361
REMARK  128  A    between atoms: _366  and  _368
REMARK  129  A    between atoms: _368  and  _369
REMARK  130  A    between atoms: _368  and  _371
REMARK  131  A    between atoms: _371  and  _372
REMARK  132  A    between atoms: _372  and  _373
REMARK  133  A    between atoms: _376  and  _378
REMARK  134  A    between atoms: _378  and  _379
REMARK  135  A    between atoms: _378  and  _381
REMARK  136  A    between atoms: _381  and  _382
REMARK  137  A    between atoms: _382  and  _383
REMARK  138  A    between atoms: _385  and  _387
REMARK  139  A    between atoms: _387  and  _388
REMARK  140  A    between atoms: _387  and  _390
REMARK  141  A    between atoms: _390  and  _391
REMARK  142  A    between atoms: _396  and  _397
REMARK                            x       y       z     vdW  Elec       q    Type
REMARK                         _______ _______ _______ _____ _____    ______ ____
ROOT
ATOM      1  O   HOH     1      72.063   7.434  38.573  0.00  0.00    +0.000 OA
ENDROOT
TORSDOF 0
REMARK  Name = ../refined-set-2016/1uz4/1uz4_pocket.pdb
REMARK  142 active torsions:
REMARK  status: ('A' for Active; 'I' for Inactive)
REMARK    1  A    between atoms: _1  and  _3
REMARK    2  A    between atoms: _3  and  _4
REMARK    3  A    between atoms: _3  and  _6
REMARK    4  A    between atoms: _6  and  _7
REMARK    5  A    between atoms: _12  and  _14
REMARK    6  A    between atoms: _14  and  _15
REMARK    7  A    between atoms: _14  and  _17
REMARK    8  A    between atoms: _17  and  _18
REMARK    9  A    between atoms: _28  and  _30
REMARK   10  A    between atoms: _30  and  _31
REMARK   11  A    between atoms: _30  and  _33
REMARK   12  A    between atoms: _34  and  _35
REMARK   13  A    between atoms: _35  and  _36
REMARK   14  A    between atoms: _45  and  _47
REMARK   15  A    between atoms: _47  and  _48
REMARK   16  A    between atoms: _47  and  _50
REMARK   17  A    between atoms: _50  and  _51
REMARK   18  A    between atoms: _56  and  _57
REMARK   19  A    between atoms: _59  and  _61
REMARK   20  A    between atoms: _61  and  _62
REMARK   21  A    between atoms: _61  and  _64
REMARK   22  A    between atoms: _64  and  _65
REMARK   23  A    between atoms: _70  and  _72
REMARK   24  A    between atoms: _72  and  _73
REMARK   25  A    between atoms: _72  and  _75
REMARK   26  A    between atoms: _75  and  _76
REMARK   27  A    between atoms: _82  and  _84
REMARK   28  A    between atoms: _84  and  _85
REMARK   29  A    between atoms: _84  and  _87
REMARK   30  A    between atoms: _87  and  _88
REMARK   31  A    between atoms: _98  and  _100
REMARK   32  A    between atoms: _100  and  _101
REMARK   33  A    between atoms: _100  and  _103
REMARK   34  A    between atoms: _103  and  _104
REMARK   35  A    between atoms: _104  and  _105
REMARK   36  A    between atoms: _110  and  _112
REMARK   37  A    between atoms: _112  and  _113
REMARK   38  A    between atoms: _112  and  _115
REMARK   39  A    between atoms: _115  and  _116
REMARK   40  A    between atoms: _126  and  _128
REMARK   41  A    between atoms: _128  and  _129
REMARK   42  A    between atoms: _128  and  _131
REMARK   43  A    between atoms: _131  and  _132
REMARK   44  A    between atoms: _134  and  _136
REMARK   45  A    between atoms: _136  and  _137
REMARK   46  A    between atoms: _136  and  _139
REMARK   47  A    between atoms: _139  and  _140
REMARK   48  A    between atoms: _145  and  _147
REMARK   49  A    between atoms: _147  and  _148
REMARK   50  A    between atoms: _147  and  _150
REMARK   51  A    between atoms: _150  and  _151
REMARK   52  A    between atoms: _151  and  _152
REMARK   53  A    between atoms: _155  and  _157
REMARK   54  A    between atoms: _157  and  _158
REMARK   55  A    between atoms: _157  and  _160
REMARK   56  A    between atoms: _160  and  _161
REMARK   57  A    between atoms: _161  and  _162
REMARK   58  A    between atoms: _162  and  _163
REMARK   59  A    between atoms: _172  and  _174
REMARK   60  A    between atoms: _174  and  _175
REMARK   61  A    between atoms: _177  and  _179
REMARK   62  A    between atoms: _179  and  _180
REMARK   63  A    between atoms: _179  and  _182
REMARK   64  A    between atoms: _182  and  _183
REMARK   65  A    between atoms: _183  and  _184
REMARK   66  A    between atoms: _187  and  _189
REMARK   67  A    between atoms: _189  and  _190
REMARK   68  A    between atoms: _189  and  _192
REMARK   69  A    between atoms: _192  and  _193
REMARK   70  A    between atoms: _198  and  _200
REMARK   71  A    between atoms: _200  and  _201
REMARK   72  A    between atoms: _200  and  _203
REMARK   73  A    between atoms: _203  and  _204
REMARK   74  A    between atoms: _204  and  _205
REMARK   75  A    between atoms: _207  and  _209
REMARK   76  A    between atoms: _209  and  _210
REMARK   77  A    between atoms: _209  and  _212
REMARK   78  A    between atoms: _212  and  _213
REMARK   79  A    between atoms: _223  and  _225
REMARK   80  A    between atoms: _225  and  _226
REMARK   81  A    between atoms: _225  and  _228
REMARK   82  A    between atoms: _228  and  _229
REMARK   83  A    between atoms: _229  and  _230
REMARK   84  A    between atoms: _230  and  _231
REMARK   85  A    between atoms: _240  and  _242
REMARK   86  A    between atoms: _242  and  _243
REMARK   87  A    between atoms: _242  and  _245
REMARK   88  A    between atoms: _245  and  _246
REMARK   89  A    between atoms: _251  and  _253
REMARK   90  A    between atoms: _253  and  _254
REMARK   91  A    between atoms: _253  and  _256
REMARK   92  A    between atoms: _256  and  _257
REMARK   93  A    between atoms: _267  and  _269
REMARK   94  A    between atoms: _269  and  _270
REMARK   95  A    between atoms: _269  and  _272
REMARK   96  A    between atoms: _272  and  _273
REMARK   97  A    between atoms: _273  and  _274
REMARK   98  A    between atoms: _277  and  _279
REMARK   99  A    between atoms: _279  and  _280
REMARK  100  A    between atoms: _279  and  _282
REMARK  101  A    between atoms: _282  and  _283
REMARK  102  A    between atoms: _283  and  _284
REMARK  103  A    between atoms: _287  and  _289
REMARK  104  A    between atoms: _289  and  _290
REMARK  105  A    between atoms: _289  and  _292
REMARK  106  A    between atoms: _292  and  _293
REMARK  107  A    between atoms: _299  and  _301
REMARK  108  A    between atoms: _301  and  _302
REMARK  109  A    between atoms: _304  and  _306
REMARK  110  A    between atoms: _306  and  _307
REMARK  111  A    between atoms: _306  and  _309
REMARK  112  A    between atoms: _309  and  _310
REMARK  113  A    between atoms: _320  and  _322
REMARK  114  A    between atoms: _322  and  _323
REMARK  115  A    between atoms: _326  and  _328
REMARK  116  A    between atoms: _328  and  _329
REMARK  117  A    between atoms: _331  and  _333
REMARK  118  A    between atoms: _333  and  _334
REMARK  119  A    between atoms: _333  and  _336
REMARK  120  A    between atoms: _336  and  _337
REMARK  121  A    between atoms: _341  and  _342
REMARK  122  A    between atoms: _348  and  _349
REMARK  123  A    between atoms: _354  and  _356
REMARK  124  A    between atoms: _356  and  _357
REMARK  125  A    between atoms: _356  and  _359
REMARK  126  A    between atoms: _359  and  _360
REMARK  127  A    between atoms: _360  and  _361
REMARK  128  A    between atoms: _366  and  _368
REMARK  129  A    between atoms: _368  and  _369
REMARK  130  A    between atoms: _368  and  _371
REMARK  131  A    between atoms: _371  and  _372
REMARK  132  A    between atoms: _372  and  _373
REMARK  133  A    between atoms: _376  and  _378
REMARK  134  A    between atoms: _378  and  _379
REMARK  135  A    between atoms: _378  and  _381
REMARK  136  A    between atoms: _381  and  _382
REMARK  137  A    between atoms: _382  and  _383
REMARK  138  A    between atoms: _385  and  _387
REMARK  139  A    between atoms: _387  and  _388
REMARK  140  A    between atoms: _387  and  _390
REMARK  141  A    between atoms: _390  and  _391
REMARK  142  A    between atoms: _396  and  _397
REMARK                            x       y       z     vdW  Elec       q    Type
REMARK                         _______ _______ _______ _____ _____    ______ ____
ROOT
ATOM      1  O   HOH     1      81.340   6.274  37.773  0.00  0.00    +0.000 OA
ENDROOT
TORSDOF 0
REMARK  Name = ../refined-set-2016/1uz4/1uz4_pocket.pdb
REMARK  142 active torsions:
REMARK  status: ('A' for Active; 'I' for Inactive)
REMARK    1  A    between atoms: _1  and  _3
REMARK    2  A    between atoms: _3  and  _4
REMARK    3  A    between atoms: _3  and  _6
REMARK    4  A    between atoms: _6  and  _7
REMARK    5  A    between atoms: _12  and  _14
REMARK    6  A    between atoms: _14  and  _15
REMARK    7  A    between atoms: _14  and  _17
REMARK    8  A    between atoms: _17  and  _18
REMARK    9  A    between atoms: _28  and  _30
REMARK   10  A    between atoms: _30  and  _31
REMARK   11  A    between atoms: _30  and  _33
REMARK   12  A    between atoms: _34  and  _35
REMARK   13  A    between atoms: _35  and  _36
REMARK   14  A    between atoms: _45  and  _47
REMARK   15  A    between atoms: _47  and  _48
REMARK   16  A    between atoms: _47  and  _50
REMARK   17  A    between atoms: _50  and  _51
REMARK   18  A    between atoms: _56  and  _57
REMARK   19  A    between atoms: _59  and  _61
REMARK   20  A    between atoms: _61  and  _62
REMARK   21  A    between atoms: _61  and  _64
REMARK   22  A    between atoms: _64  and  _65
REMARK   23  A    between atoms: _70  and  _72
REMARK   24  A    between atoms: _72  and  _73
REMARK   25  A    between atoms: _72  and  _75
REMARK   26  A    between atoms: _75  and  _76
REMARK   27  A    between atoms: _82  and  _84
REMARK   28  A    between atoms: _84  and  _85
REMARK   29  A    between atoms: _84  and  _87
REMARK   30  A    between atoms: _87  and  _88
REMARK   31  A    between atoms: _98  and  _100
REMARK   32  A    between atoms: _100  and  _101
REMARK   33  A    between atoms: _100  and  _103
REMARK   34  A    between atoms: _103  and  _104
REMARK   35  A    between atoms: _104  and  _105
REMARK   36  A    between atoms: _110  and  _112
REMARK   37  A    between atoms: _112  and  _113
REMARK   38  A    between atoms: _112  and  _115
REMARK   39  A    between atoms: _115  and  _116
REMARK   40  A    between atoms: _126  and  _128
REMARK   41  A    between atoms: _128  and  _129
REMARK   42  A    between atoms: _128  and  _131
REMARK   43  A    between atoms: _131  and  _132
REMARK   44  A    between atoms: _134  and  _136
REMARK   45  A    between atoms: _136  and  _137
REMARK   46  A    between atoms: _136  and  _139
REMARK   47  A    between atoms: _139  and  _140
REMARK   48  A    between atoms: _145  and  _147
REMARK   49  A    between atoms: _147  and  _148
REMARK   50  A    between atoms: _147  and  _150
REMARK   51  A    between atoms: _150  and  _151
REMARK   52  A    between atoms: _151  and  _152
REMARK   53  A    between atoms: _155  and  _157
REMARK   54  A    between atoms: _157  and  _158
REMARK   55  A    between atoms: _157  and  _160
REMARK   56  A    between atoms: _160  and  _161
REMARK   57  A    between atoms: _161  and  _162
REMARK   58  A    between atoms: _162  and  _163
REMARK   59  A    between atoms: _172  and  _174
REMARK   60  A    between atoms: _174  and  _175
REMARK   61  A    between atoms: _177  and  _179
REMARK   62  A    between atoms: _179  and  _180
REMARK   63  A    between atoms: _179  and  _182
REMARK   64  A    between atoms: _182  and  _183
REMARK   65  A    between atoms: _183  and  _184
REMARK   66  A    between atoms: _187  and  _189
REMARK   67  A    between atoms: _189  and  _190
REMARK   68  A    between atoms: _189  and  _192
REMARK   69  A    between atoms: _192  and  _193
REMARK   70  A    between atoms: _198  and  _200
REMARK   71  A    between atoms: _200  and  _201
REMARK   72  A    between atoms: _200  and  _203
REMARK   73  A    between atoms: _203  and  _204
REMARK   74  A    between atoms: _204  and  _205
REMARK   75  A    between atoms: _207  and  _209
REMARK   76  A    between atoms: _209  and  _210
REMARK   77  A    between atoms: _209  and  _212
REMARK   78  A    between atoms: _212  and  _213
REMARK   79  A    between atoms: _223  and  _225
REMARK   80  A    between atoms: _225  and  _226
REMARK   81  A    between atoms: _225  and  _228
REMARK   82  A    between atoms: _228  and  _229
REMARK   83  A    between atoms: _229  and  _230
REMARK   84  A    between atoms: _230  and  _231
REMARK   85  A    between atoms: _240  and  _242
REMARK   86  A    between atoms: _242  and  _243
REMARK   87  A    between atoms: _242  and  _245
REMARK   88  A    between atoms: _245  and  _246
REMARK   89  A    between atoms: _251  and  _253
REMARK   90  A    between atoms: _253  and  _254
REMARK   91  A    between atoms: _253  and  _256
REMARK   92  A    between atoms: _256  and  _257
REMARK   93  A    between atoms: _267  and  _269
REMARK   94  A    between atoms: _269  and  _270
REMARK   95  A    between atoms: _269  and  _272
REMARK   96  A    between atoms: _272  and  _273
REMARK   97  A    between atoms: _273  and  _274
REMARK   98  A    between atoms: _277  and  _279
REMARK   99  A    between atoms: _279  and  _280
REMARK  100  A    between atoms: _279  and  _282
REMARK  101  A    between atoms: _282  and  _283
REMARK  102  A    between atoms: _283  and  _284
REMARK  103  A    between atoms: _287  and  _289
REMARK  104  A    between atoms: _289  and  _290
REMARK  105  A    between atoms: _289  and  _292
REMARK  106  A    between atoms: _292  and  _293
REMARK  107  A    between atoms: _299  and  _301
REMARK  108  A    between atoms: _301  and  _302
REMARK  109  A    between atoms: _304  and  _306
REMARK  110  A    between atoms: _306  and  _307
REMARK  111  A    between atoms: _306  and  _309
REMARK  112  A    between atoms: _309  and  _310
REMARK  113  A    between atoms: _320  and  _322
REMARK  114  A    between atoms: _322  and  _323
REMARK  115  A    between atoms: _326  and  _328
REMARK  116  A    between atoms: _328  and  _329
REMARK  117  A    between atoms: _331  and  _333
REMARK  118  A    between atoms: _333  and  _334
REMARK  119  A    between atoms: _333  and  _336
REMARK  120  A    between atoms: _336  and  _337
REMARK  121  A    between atoms: _341  and  _342
REMARK  122  A    between atoms: _348  and  _349
REMARK  123  A    between atoms: _354  and  _356
REMARK  124  A    between atoms: _356  and  _357
REMARK  125  A    between atoms: _356  and  _359
REMARK  126  A    between atoms: _359  and  _360
REMARK  127  A    between atoms: _360  and  _361
REMARK  128  A    between atoms: _366  and  _368
REMARK  129  A    between atoms: _368  and  _369
REMARK  130  A    between atoms: _368  and  _371
REMARK  131  A    between atoms: _371  and  _372
REMARK  132  A    between atoms: _372  and  _373
REMARK  133  A    between atoms: _376  and  _378
REMARK  134  A    between atoms: _378  and  _379
REMARK  135  A    between atoms: _378  and  _381
REMARK  136  A    between atoms: _381  and  _382
REMARK  137  A    between atoms: _382  and  _383
REMARK  138  A    between atoms: _385  and  _387
REMARK  139  A    between atoms: _387  and  _388
REMARK  140  A    between atoms: _387  and  _390
REMARK  141  A    between atoms: _390  and  _391
REMARK  142  A    between atoms: _396  and  _397
REMARK                            x       y       z     vdW  Elec       q    Type
REMARK                         _______ _______ _______ _____ _____    ______ ____
ROOT
ATOM      1  O   HOH     1      83.567  12.593  33.971  0.00  0.00    +0.000 OA
ENDROOT
TORSDOF 0
REMARK  Name = ../refined-set-2016/1uz4/1uz4_pocket.pdb
REMARK  142 active torsions:
REMARK  status: ('A' for Active; 'I' for Inactive)
REMARK    1  A    between atoms: _1  and  _3
REMARK    2  A    between atoms: _3  and  _4
REMARK    3  A    between atoms: _3  and  _6
REMARK    4  A    between atoms: _6  and  _7
REMARK    5  A    between atoms: _12  and  _14
REMARK    6  A    between atoms: _14  and  _15
REMARK    7  A    between atoms: _14  and  _17
REMARK    8  A    between atoms: _17  and  _18
REMARK    9  A    between atoms: _28  and  _30
REMARK   10  A    between atoms: _30  and  _31
REMARK   11  A    between atoms: _30  and  _33
REMARK   12  A    between atoms: _34  and  _35
REMARK   13  A    between atoms: _35  and  _36
REMARK   14  A    between atoms: _45  and  _47
REMARK   15  A    between atoms: _47  and  _48
REMARK   16  A    between atoms: _47  and  _50
REMARK   17  A    between atoms: _50  and  _51
REMARK   18  A    between atoms: _56  and  _57
REMARK   19  A    between atoms: _59  and  _61
REMARK   20  A    between atoms: _61  and  _62
REMARK   21  A    between atoms: _61  and  _64
REMARK   22  A    between atoms: _64  and  _65
REMARK   23  A    between atoms: _70  and  _72
REMARK   24  A    between atoms: _72  and  _73
REMARK   25  A    between atoms: _72  and  _75
REMARK   26  A    between atoms: _75  and  _76
REMARK   27  A    between atoms: _82  and  _84
REMARK   28  A    between atoms: _84  and  _85
REMARK   29  A    between atoms: _84  and  _87
REMARK   30  A    between atoms: _87  and  _88
REMARK   31  A    between atoms: _98  and  _100
REMARK   32  A    between atoms: _100  and  _101
REMARK   33  A    between atoms: _100  and  _103
REMARK   34  A    between atoms: _103  and  _104
REMARK   35  A    between atoms: _104  and  _105
REMARK   36  A    between atoms: _110  and  _112
REMARK   37  A    between atoms: _112  and  _113
REMARK   38  A    between atoms: _112  and  _115
REMARK   39  A    between atoms: _115  and  _116
REMARK   40  A    between atoms: _126  and  _128
REMARK   41  A    between atoms: _128  and  _129
REMARK   42  A    between atoms: _128  and  _131
REMARK   43  A    between atoms: _131  and  _132
REMARK   44  A    between atoms: _134  and  _136
REMARK   45  A    between atoms: _136  and  _137
REMARK   46  A    between atoms: _136  and  _139
REMARK   47  A    between atoms: _139  and  _140
REMARK   48  A    between atoms: _145  and  _147
REMARK   49  A    between atoms: _147  and  _148
REMARK   50  A    between atoms: _147  and  _150
REMARK   51  A    between atoms: _150  and  _151
REMARK   52  A    between atoms: _151  and  _152
REMARK   53  A    between atoms: _155  and  _157
REMARK   54  A    between atoms: _157  and  _158
REMARK   55  A    between atoms: _157  and  _160
REMARK   56  A    between atoms: _160  and  _161
REMARK   57  A    between atoms: _161  and  _162
REMARK   58  A    between atoms: _162  and  _163
REMARK   59  A    between atoms: _172  and  _174
REMARK   60  A    between atoms: _174  and  _175
REMARK   61  A    between atoms: _177  and  _179
REMARK   62  A    between atoms: _179  and  _180
REMARK   63  A    between atoms: _179  and  _182
REMARK   64  A    between atoms: _182  and  _183
REMARK   65  A    between atoms: _183  and  _184
REMARK   66  A    between atoms: _187  and  _189
REMARK   67  A    between atoms: _189  and  _190
REMARK   68  A    between atoms: _189  and  _192
REMARK   69  A    between atoms: _192  and  _193
REMARK   70  A    between atoms: _198  and  _200
REMARK   71  A    between atoms: _200  and  _201
REMARK   72  A    between atoms: _200  and  _203
REMARK   73  A    between atoms: _203  and  _204
REMARK   74  A    between atoms: _204  and  _205
REMARK   75  A    between atoms: _207  and  _209
REMARK   76  A    between atoms: _209  and  _210
REMARK   77  A    between atoms: _209  and  _212
REMARK   78  A    between atoms: _212  and  _213
REMARK   79  A    between atoms: _223  and  _225
REMARK   80  A    between atoms: _225  and  _226
REMARK   81  A    between atoms: _225  and  _228
REMARK   82  A    between atoms: _228  and  _229
REMARK   83  A    between atoms: _229  and  _230
REMARK   84  A    between atoms: _230  and  _231
REMARK   85  A    between atoms: _240  and  _242
REMARK   86  A    between atoms: _242  and  _243
REMARK   87  A    between atoms: _242  and  _245
REMARK   88  A    between atoms: _245  and  _246
REMARK   89  A    between atoms: _251  and  _253
REMARK   90  A    between atoms: _253  and  _254
REMARK   91  A    between atoms: _253  and  _256
REMARK   92  A    between atoms: _256  and  _257
REMARK   93  A    between atoms: _267  and  _269
REMARK   94  A    between atoms: _269  and  _270
REMARK   95  A    between atoms: _269  and  _272
REMARK   96  A    between atoms: _272  and  _273
REMARK   97  A    between atoms: _273  and  _274
REMARK   98  A    between atoms: _277  and  _279
REMARK   99  A    between atoms: _279  and  _280
REMARK  100  A    between atoms: _279  and  _282
REMARK  101  A    between atoms: _282  and  _283
REMARK  102  A    between atoms: _283  and  _284
REMARK  103  A    between atoms: _287  and  _289
REMARK  104  A    between atoms: _289  and  _290
REMARK  105  A    between atoms: _289  and  _292
REMARK  106  A    between atoms: _292  and  _293
REMARK  107  A    between atoms: _299  and  _301
REMARK  108  A    between atoms: _301  and  _302
REMARK  109  A    between atoms: _304  and  _306
REMARK  110  A    between atoms: _306  and  _307
REMARK  111  A    between atoms: _306  and  _309
REMARK  112  A    between atoms: _309  and  _310
REMARK  113  A    between atoms: _320  and  _322
REMARK  114  A    between atoms: _322  and  _323
REMARK  115  A    between atoms: _326  and  _328
REMARK  116  A    between atoms: _328  and  _329
REMARK  117  A    between atoms: _331  and  _333
REMARK  118  A    between atoms: _333  and  _334
REMARK  119  A    between atoms: _333  and  _336
REMARK  120  A    between atoms: _336  and  _337
REMARK  121  A    between atoms: _341  and  _342
REMARK  122  A    between atoms: _348  and  _349
REMARK  123  A    between atoms: _354  and  _356
REMARK  124  A    between atoms: _356  and  _357
REMARK  125  A    between atoms: _356  and  _359
REMARK  126  A    between atoms: _359  and  _360
REMARK  127  A    between atoms: _360  and  _361
REMARK  128  A    between atoms: _366  and  _368
REMARK  129  A    between atoms: _368  and  _369
REMARK  130  A    between atoms: _368  and  _371
REMARK  131  A    between atoms: _371  and  _372
REMARK  132  A    between atoms: _372  and  _373
REMARK  133  A    between atoms: _376  and  _378
REMARK  134  A    between atoms: _378  and  _379
REMARK  135  A    between atoms: _378  and  _381
REMARK  136  A    between atoms: _381  and  _382
REMARK  137  A    between atoms: _382  and  _383
REMARK  138  A    between atoms: _385  and  _387
REMARK  139  A    between atoms: _387  and  _388
REMARK  140  A    between atoms: _387  and  _390
REMARK  141  A    between atoms: _390  and  _391
REMARK  142  A    between atoms: _396  and  _397
REMARK                            x       y       z     vdW  Elec       q    Type
REMARK                         _______ _______ _______ _____ _____    ______ ____
ROOT
ATOM      1  O   HOH     1      78.187   7.123  36.873  0.00  0.00    +0.000 OA
ENDROOT
TORSDOF 0
REMARK  Name = ../refined-set-2016/1uz4/1uz4_pocket.pdb
REMARK  142 active torsions:
REMARK  status: ('A' for Active; 'I' for Inactive)
REMARK    1  A    between atoms: _1  and  _3
REMARK    2  A    between atoms: _3  and  _4
REMARK    3  A    between atoms: _3  and  _6
REMARK    4  A    between atoms: _6  and  _7
REMARK    5  A    between atoms: _12  and  _14
REMARK    6  A    between atoms: _14  and  _15
REMARK    7  A    between atoms: _14  and  _17
REMARK    8  A    between atoms: _17  and  _18
REMARK    9  A    between atoms: _28  and  _30
REMARK   10  A    between atoms: _30  and  _31
REMARK   11  A    between atoms: _30  and  _33
REMARK   12  A    between atoms: _34  and  _35
REMARK   13  A    between atoms: _35  and  _36
REMARK   14  A    between atoms: _45  and  _47
REMARK   15  A    between atoms: _47  and  _48
REMARK   16  A    between atoms: _47  and  _50
REMARK   17  A    between atoms: _50  and  _51
REMARK   18  A    between atoms: _56  and  _57
REMARK   19  A    between atoms: _59  and  _61
REMARK   20  A    between atoms: _61  and  _62
REMARK   21  A    between atoms: _61  and  _64
REMARK   22  A    between atoms: _64  and  _65
REMARK   23  A    between atoms: _70  and  _72
REMARK   24  A    between atoms: _72  and  _73
REMARK   25  A    between atoms: _72  and  _75
REMARK   26  A    between atoms: _75  and  _76
REMARK   27  A    between atoms: _82  and  _84
REMARK   28  A    between atoms: _84  and  _85
REMARK   29  A    between atoms: _84  and  _87
REMARK   30  A    between atoms: _87  and  _88
REMARK   31  A    between atoms: _98  and  _100
REMARK   32  A    between atoms: _100  and  _101
REMARK   33  A    between atoms: _100  and  _103
REMARK   34  A    between atoms: _103  and  _104
REMARK   35  A    between atoms: _104  and  _105
REMARK   36  A    between atoms: _110  and  _112
REMARK   37  A    between atoms: _112  and  _113
REMARK   38  A    between atoms: _112  and  _115
REMARK   39  A    between atoms: _115  and  _116
REMARK   40  A    between atoms: _126  and  _128
REMARK   41  A    between atoms: _128  and  _129
REMARK   42  A    between atoms: _128  and  _131
REMARK   43  A    between atoms: _131  and  _132
REMARK   44  A    between atoms: _134  and  _136
REMARK   45  A    between atoms: _136  and  _137
REMARK   46  A    between atoms: _136  and  _139
REMARK   47  A    between atoms: _139  and  _140
REMARK   48  A    between atoms: _145  and  _147
REMARK   49  A    between atoms: _147  and  _148
REMARK   50  A    between atoms: _147  and  _150
REMARK   51  A    between atoms: _150  and  _151
REMARK   52  A    between atoms: _151  and  _152
REMARK   53  A    between atoms: _155  and  _157
REMARK   54  A    between atoms: _157  and  _158
REMARK   55  A    between atoms: _157  and  _160
REMARK   56  A    between atoms: _160  and  _161
REMARK   57  A    between atoms: _161  and  _162
REMARK   58  A    between atoms: _162  and  _163
REMARK   59  A    between atoms: _172  and  _174
REMARK   60  A    between atoms: _174  and  _175
REMARK   61  A    between atoms: _177  and  _179
REMARK   62  A    between atoms: _179  and  _180
REMARK   63  A    between atoms: _179  and  _182
REMARK   64  A    between atoms: _182  and  _183
REMARK   65  A    between atoms: _183  and  _184
REMARK   66  A    between atoms: _187  and  _189
REMARK   67  A    between atoms: _189  and  _190
REMARK   68  A    between atoms: _189  and  _192
REMARK   69  A    between atoms: _192  and  _193
REMARK   70  A    between atoms: _198  and  _200
REMARK   71  A    between atoms: _200  and  _201
REMARK   72  A    between atoms: _200  and  _203
REMARK   73  A    between atoms: _203  and  _204
REMARK   74  A    between atoms: _204  and  _205
REMARK   75  A    between atoms: _207  and  _209
REMARK   76  A    between atoms: _209  and  _210
REMARK   77  A    between atoms: _209  and  _212
REMARK   78  A    between atoms: _212  and  _213
REMARK   79  A    between atoms: _223  and  _225
REMARK   80  A    between atoms: _225  and  _226
REMARK   81  A    between atoms: _225  and  _228
REMARK   82  A    between atoms: _228  and  _229
REMARK   83  A    between atoms: _229  and  _230
REMARK   84  A    between atoms: _230  and  _231
REMARK   85  A    between atoms: _240  and  _242
REMARK   86  A    between atoms: _242  and  _243
REMARK   87  A    between atoms: _242  and  _245
REMARK   88  A    between atoms: _245  and  _246
REMARK   89  A    between atoms: _251  and  _253
REMARK   90  A    between atoms: _253  and  _254
REMARK   91  A    between atoms: _253  and  _256
REMARK   92  A    between atoms: _256  and  _257
REMARK   93  A    between atoms: _267  and  _269
REMARK   94  A    between atoms: _269  and  _270
REMARK   95  A    between atoms: _269  and  _272
REMARK   96  A    between atoms: _272  and  _273
REMARK   97  A    between atoms: _273  and  _274
REMARK   98  A    between atoms: _277  and  _279
REMARK   99  A    between atoms: _279  and  _280
REMARK  100  A    between atoms: _279  and  _282
REMARK  101  A    between atoms: _282  and  _283
REMARK  102  A    between atoms: _283  and  _284
REMARK  103  A    between atoms: _287  and  _289
REMARK  104  A    between atoms: _289  and  _290
REMARK  105  A    between atoms: _289  and  _292
REMARK  106  A    between atoms: _292  and  _293
REMARK  107  A    between atoms: _299  and  _301
REMARK  108  A    between atoms: _301  and  _302
REMARK  109  A    between atoms: _304  and  _306
REMARK  110  A    between atoms: _306  and  _307
REMARK  111  A    between atoms: _306  and  _309
REMARK  112  A    between atoms: _309  and  _310
REMARK  113  A    between atoms: _320  and  _322
REMARK  114  A    between atoms: _322  and  _323
REMARK  115  A    between atoms: _326  and  _328
REMARK  116  A    between atoms: _328  and  _329
REMARK  117  A    between atoms: _331  and  _333
REMARK  118  A    between atoms: _333  and  _334
REMARK  119  A    between atoms: _333  and  _336
REMARK  120  A    between atoms: _336  and  _337
REMARK  121  A    between atoms: _341  and  _342
REMARK  122  A    between atoms: _348  and  _349
REMARK  123  A    between atoms: _354  and  _356
REMARK  124  A    between atoms: _356  and  _357
REMARK  125  A    between atoms: _356  and  _359
REMARK  126  A    between atoms: _359  and  _360
REMARK  127  A    between atoms: _360  and  _361
REMARK  128  A    between atoms: _366  and  _368
REMARK  129  A    between atoms: _368  and  _369
REMARK  130  A    between atoms: _368  and  _371
REMARK  131  A    between atoms: _371  and  _372
REMARK  132  A    between atoms: _372  and  _373
REMARK  133  A    between atoms: _376  and  _378
REMARK  134  A    between atoms: _378  and  _379
REMARK  135  A    between atoms: _378  and  _381
REMARK  136  A    between atoms: _381  and  _382
REMARK  137  A    between atoms: _382  and  _383
REMARK  138  A    between atoms: _385  and  _387
REMARK  139  A    between atoms: _387  and  _388
REMARK  140  A    between atoms: _387  and  _390
REMARK  141  A    between atoms: _390  and  _391
REMARK  142  A    between atoms: _396  and  _397
REMARK                            x       y       z     vdW  Elec       q    Type
REMARK                         _______ _______ _______ _____ _____    ______ ____
ROOT
ATOM      1  O   HOH     1      72.075  20.144  33.262  0.00  0.00    +0.000 OA
ENDROOT
TORSDOF 0
REMARK  Name = ../refined-set-2016/1uz4/1uz4_pocket.pdb
REMARK  142 active torsions:
REMARK  status: ('A' for Active; 'I' for Inactive)
REMARK    1  A    between atoms: _1  and  _3
REMARK    2  A    between atoms: _3  and  _4
REMARK    3  A    between atoms: _3  and  _6
REMARK    4  A    between atoms: _6  and  _7
REMARK    5  A    between atoms: _12  and  _14
REMARK    6  A    between atoms: _14  and  _15
REMARK    7  A    between atoms: _14  and  _17
REMARK    8  A    between atoms: _17  and  _18
REMARK    9  A    between atoms: _28  and  _30
REMARK   10  A    between atoms: _30  and  _31
REMARK   11  A    between atoms: _30  and  _33
REMARK   12  A    between atoms: _34  and  _35
REMARK   13  A    between atoms: _35  and  _36
REMARK   14  A    between atoms: _45  and  _47
REMARK   15  A    between atoms: _47  and  _48
REMARK   16  A    between atoms: _47  and  _50
REMARK   17  A    between atoms: _50  and  _51
REMARK   18  A    between atoms: _56  and  _57
REMARK   19  A    between atoms: _59  and  _61
REMARK   20  A    between atoms: _61  and  _62
REMARK   21  A    between atoms: _61  and  _64
REMARK   22  A    between atoms: _64  and  _65
REMARK   23  A    between atoms: _70  and  _72
REMARK   24  A    between atoms: _72  and  _73
REMARK   25  A    between atoms: _72  and  _75
REMARK   26  A    between atoms: _75  and  _76
REMARK   27  A    between atoms: _82  and  _84
REMARK   28  A    between atoms: _84  and  _85
REMARK   29  A    between atoms: _84  and  _87
REMARK   30  A    between atoms: _87  and  _88
REMARK   31  A    between atoms: _98  and  _100
REMARK   32  A    between atoms: _100  and  _101
REMARK   33  A    between atoms: _100  and  _103
REMARK   34  A    between atoms: _103  and  _104
REMARK   35  A    between atoms: _104  and  _105
REMARK   36  A    between atoms: _110  and  _112
REMARK   37  A    between atoms: _112  and  _113
REMARK   38  A    between atoms: _112  and  _115
REMARK   39  A    between atoms: _115  and  _116
REMARK   40  A    between atoms: _126  and  _128
REMARK   41  A    between atoms: _128  and  _129
REMARK   42  A    between atoms: _128  and  _131
REMARK   43  A    between atoms: _131  and  _132
REMARK   44  A    between atoms: _134  and  _136
REMARK   45  A    between atoms: _136  and  _137
REMARK   46  A    between atoms: _136  and  _139
REMARK   47  A    between atoms: _139  and  _140
REMARK   48  A    between atoms: _145  and  _147
REMARK   49  A    between atoms: _147  and  _148
REMARK   50  A    between atoms: _147  and  _150
REMARK   51  A    between atoms: _150  and  _151
REMARK   52  A    between atoms: _151  and  _152
REMARK   53  A    between atoms: _155  and  _157
REMARK   54  A    between atoms: _157  and  _158
REMARK   55  A    between atoms: _157  and  _160
REMARK   56  A    between atoms: _160  and  _161
REMARK   57  A    between atoms: _161  and  _162
REMARK   58  A    between atoms: _162  and  _163
REMARK   59  A    between atoms: _172  and  _174
REMARK   60  A    between atoms: _174  and  _175
REMARK   61  A    between atoms: _177  and  _179
REMARK   62  A    between atoms: _179  and  _180
REMARK   63  A    between atoms: _179  and  _182
REMARK   64  A    between atoms: _182  and  _183
REMARK   65  A    between atoms: _183  and  _184
REMARK   66  A    between atoms: _187  and  _189
REMARK   67  A    between atoms: _189  and  _190
REMARK   68  A    between atoms: _189  and  _192
REMARK   69  A    between atoms: _192  and  _193
REMARK   70  A    between atoms: _198  and  _200
REMARK   71  A    between atoms: _200  and  _201
REMARK   72  A    between atoms: _200  and  _203
REMARK   73  A    between atoms: _203  and  _204
REMARK   74  A    between atoms: _204  and  _205
REMARK   75  A    between atoms: _207  and  _209
REMARK   76  A    between atoms: _209  and  _210
REMARK   77  A    between atoms: _209  and  _212
REMARK   78  A    between atoms: _212  and  _213
REMARK   79  A    between atoms: _223  and  _225
REMARK   80  A    between atoms: _225  and  _226
REMARK   81  A    between atoms: _225  and  _228
REMARK   82  A    between atoms: _228  and  _229
REMARK   83  A    between atoms: _229  and  _230
REMARK   84  A    between atoms: _230  and  _231
REMARK   85  A    between atoms: _240  and  _242
REMARK   86  A    between atoms: _242  and  _243
REMARK   87  A    between atoms: _242  and  _245
REMARK   88  A    between atoms: _245  and  _246
REMARK   89  A    between atoms: _251  and  _253
REMARK   90  A    between atoms: _253  and  _254
REMARK   91  A    between atoms: _253  and  _256
REMARK   92  A    between atoms: _256  and  _257
REMARK   93  A    between atoms: _267  and  _269
REMARK   94  A    between atoms: _269  and  _270
REMARK   95  A    between atoms: _269  and  _272
REMARK   96  A    between atoms: _272  and  _273
REMARK   97  A    between atoms: _273  and  _274
REMARK   98  A    between atoms: _277  and  _279
REMARK   99  A    between atoms: _279  and  _280
REMARK  100  A    between atoms: _279  and  _282
REMARK  101  A    between atoms: _282  and  _283
REMARK  102  A    between atoms: _283  and  _284
REMARK  103  A    between atoms: _287  and  _289
REMARK  104  A    between atoms: _289  and  _290
REMARK  105  A    between atoms: _289  and  _292
REMARK  106  A    between atoms: _292  and  _293
REMARK  107  A    between atoms: _299  and  _301
REMARK  108  A    between atoms: _301  and  _302
REMARK  109  A    between atoms: _304  and  _306
REMARK  110  A    between atoms: _306  and  _307
REMARK  111  A    between atoms: _306  and  _309
REMARK  112  A    between atoms: _309  and  _310
REMARK  113  A    between atoms: _320  and  _322
REMARK  114  A    between atoms: _322  and  _323
REMARK  115  A    between atoms: _326  and  _328
REMARK  116  A    between atoms: _328  and  _329
REMARK  117  A    between atoms: _331  and  _333
REMARK  118  A    between atoms: _333  and  _334
REMARK  119  A    between atoms: _333  and  _336
REMARK  120  A    between atoms: _336  and  _337
REMARK  121  A    between atoms: _341  and  _342
REMARK  122  A    between atoms: _348  and  _349
REMARK  123  A    between atoms: _354  and  _356
REMARK  124  A    between atoms: _356  and  _357
REMARK  125  A    between atoms: _356  and  _359
REMARK  126  A    between atoms: _359  and  _360
REMARK  127  A    between atoms: _360  and  _361
REMARK  128  A    between atoms: _366  and  _368
REMARK  129  A    between atoms: _368  and  _369
REMARK  130  A    between atoms: _368  and  _371
REMARK  131  A    between atoms: _371  and  _372
REMARK  132  A    between atoms: _372  and  _373
REMARK  133  A    between atoms: _376  and  _378
REMARK  134  A    between atoms: _378  and  _379
REMARK  135  A    between atoms: _378  and  _381
REMARK  136  A    between atoms: _381  and  _382
REMARK  137  A    between atoms: _382  and  _383
REMARK  138  A    between atoms: _385  and  _387
REMARK  139  A    between atoms: _387  and  _388
REMARK  140  A    between atoms: _387  and  _390
REMARK  141  A    between atoms: _390  and  _391
REMARK  142  A    between atoms: _396  and  _397
REMARK                            x       y       z     vdW  Elec       q    Type
REMARK                         _______ _______ _______ _____ _____    ______ ____
ROOT
ATOM      1  O   HOH     1      74.413   8.924  41.437  0.00  0.00    +0.000 OA
ENDROOT
TORSDOF 0
REMARK  Name = ../refined-set-2016/1uz4/1uz4_pocket.pdb
REMARK  142 active torsions:
REMARK  status: ('A' for Active; 'I' for Inactive)
REMARK    1  A    between atoms: _1  and  _3
REMARK    2  A    between atoms: _3  and  _4
REMARK    3  A    between atoms: _3  and  _6
REMARK    4  A    between atoms: _6  and  _7
REMARK    5  A    between atoms: _12  and  _14
REMARK    6  A    between atoms: _14  and  _15
REMARK    7  A    between atoms: _14  and  _17
REMARK    8  A    between atoms: _17  and  _18
REMARK    9  A    between atoms: _28  and  _30
REMARK   10  A    between atoms: _30  and  _31
REMARK   11  A    between atoms: _30  and  _33
REMARK   12  A    between atoms: _34  and  _35
REMARK   13  A    between atoms: _35  and  _36
REMARK   14  A    between atoms: _45  and  _47
REMARK   15  A    between atoms: _47  and  _48
REMARK   16  A    between atoms: _47  and  _50
REMARK   17  A    between atoms: _50  and  _51
REMARK   18  A    between atoms: _56  and  _57
REMARK   19  A    between atoms: _59  and  _61
REMARK   20  A    between atoms: _61  and  _62
REMARK   21  A    between atoms: _61  and  _64
REMARK   22  A    between atoms: _64  and  _65
REMARK   23  A    between atoms: _70  and  _72
REMARK   24  A    between atoms: _72  and  _73
REMARK   25  A    between atoms: _72  and  _75
REMARK   26  A    between atoms: _75  and  _76
REMARK   27  A    between atoms: _82  and  _84
REMARK   28  A    between atoms: _84  and  _85
REMARK   29  A    between atoms: _84  and  _87
REMARK   30  A    between atoms: _87  and  _88
REMARK   31  A    between atoms: _98  and  _100
REMARK   32  A    between atoms: _100  and  _101
REMARK   33  A    between atoms: _100  and  _103
REMARK   34  A    between atoms: _103  and  _104
REMARK   35  A    between atoms: _104  and  _105
REMARK   36  A    between atoms: _110  and  _112
REMARK   37  A    between atoms: _112  and  _113
REMARK   38  A    between atoms: _112  and  _115
REMARK   39  A    between atoms: _115  and  _116
REMARK   40  A    between atoms: _126  and  _128
REMARK   41  A    between atoms: _128  and  _129
REMARK   42  A    between atoms: _128  and  _131
REMARK   43  A    between atoms: _131  and  _132
REMARK   44  A    between atoms: _134  and  _136
REMARK   45  A    between atoms: _136  and  _137
REMARK   46  A    between atoms: _136  and  _139
REMARK   47  A    between atoms: _139  and  _140
REMARK   48  A    between atoms: _145  and  _147
REMARK   49  A    between atoms: _147  and  _148
REMARK   50  A    between atoms: _147  and  _150
REMARK   51  A    between atoms: _150  and  _151
REMARK   52  A    between atoms: _151  and  _152
REMARK   53  A    between atoms: _155  and  _157
REMARK   54  A    between atoms: _157  and  _158
REMARK   55  A    between atoms: _157  and  _160
REMARK   56  A    between atoms: _160  and  _161
REMARK   57  A    between atoms: _161  and  _162
REMARK   58  A    between atoms: _162  and  _163
REMARK   59  A    between atoms: _172  and  _174
REMARK   60  A    between atoms: _174  and  _175
REMARK   61  A    between atoms: _177  and  _179
REMARK   62  A    between atoms: _179  and  _180
REMARK   63  A    between atoms: _179  and  _182
REMARK   64  A    between atoms: _182  and  _183
REMARK   65  A    between atoms: _183  and  _184
REMARK   66  A    between atoms: _187  and  _189
REMARK   67  A    between atoms: _189  and  _190
REMARK   68  A    between atoms: _189  and  _192
REMARK   69  A    between atoms: _192  and  _193
REMARK   70  A    between atoms: _198  and  _200
REMARK   71  A    between atoms: _200  and  _201
REMARK   72  A    between atoms: _200  and  _203
REMARK   73  A    between atoms: _203  and  _204
REMARK   74  A    between atoms: _204  and  _205
REMARK   75  A    between atoms: _207  and  _209
REMARK   76  A    between atoms: _209  and  _210
REMARK   77  A    between atoms: _209  and  _212
REMARK   78  A    between atoms: _212  and  _213
REMARK   79  A    between atoms: _223  and  _225
REMARK   80  A    between atoms: _225  and  _226
REMARK   81  A    between atoms: _225  and  _228
REMARK   82  A    between atoms: _228  and  _229
REMARK   83  A    between atoms: _229  and  _230
REMARK   84  A    between atoms: _230  and  _231
REMARK   85  A    between atoms: _240  and  _242
REMARK   86  A    between atoms: _242  and  _243
REMARK   87  A    between atoms: _242  and  _245
REMARK   88  A    between atoms: _245  and  _246
REMARK   89  A    between atoms: _251  and  _253
REMARK   90  A    between atoms: _253  and  _254
REMARK   91  A    between atoms: _253  and  _256
REMARK   92  A    between atoms: _256  and  _257
REMARK   93  A    between atoms: _267  and  _269
REMARK   94  A    between atoms: _269  and  _270
REMARK   95  A    between atoms: _269  and  _272
REMARK   96  A    between atoms: _272  and  _273
REMARK   97  A    between atoms: _273  and  _274
REMARK   98  A    between atoms: _277  and  _279
REMARK   99  A    between atoms: _279  and  _280
REMARK  100  A    between atoms: _279  and  _282
REMARK  101  A    between atoms: _282  and  _283
REMARK  102  A    between atoms: _283  and  _284
REMARK  103  A    between atoms: _287  and  _289
REMARK  104  A    between atoms: _289  and  _290
REMARK  105  A    between atoms: _289  and  _292
REMARK  106  A    between atoms: _292  and  _293
REMARK  107  A    between atoms: _299  and  _301
REMARK  108  A    between atoms: _301  and  _302
REMARK  109  A    between atoms: _304  and  _306
REMARK  110  A    between atoms: _306  and  _307
REMARK  111  A    between atoms: _306  and  _309
REMARK  112  A    between atoms: _309  and  _310
REMARK  113  A    between atoms: _320  and  _322
REMARK  114  A    between atoms: _322  and  _323
REMARK  115  A    between atoms: _326  and  _328
REMARK  116  A    between atoms: _328  and  _329
REMARK  117  A    between atoms: _331  and  _333
REMARK  118  A    between atoms: _333  and  _334
REMARK  119  A    between atoms: _333  and  _336
REMARK  120  A    between atoms: _336  and  _337
REMARK  121  A    between atoms: _341  and  _342
REMARK  122  A    between atoms: _348  and  _349
REMARK  123  A    between atoms: _354  and  _356
REMARK  124  A    between atoms: _356  and  _357
REMARK  125  A    between atoms: _356  and  _359
REMARK  126  A    between atoms: _359  and  _360
REMARK  127  A    between atoms: _360  and  _361
REMARK  128  A    between atoms: _366  and  _368
REMARK  129  A    between atoms: _368  and  _369
REMARK  130  A    between atoms: _368  and  _371
REMARK  131  A    between atoms: _371  and  _372
REMARK  132  A    between atoms: _372  and  _373
REMARK  133  A    between atoms: _376  and  _378
REMARK  134  A    between atoms: _378  and  _379
REMARK  135  A    between atoms: _378  and  _381
REMARK  136  A    between atoms: _381  and  _382
REMARK  137  A    between atoms: _382  and  _383
REMARK  138  A    between atoms: _385  and  _387
REMARK  139  A    between atoms: _387  and  _388
REMARK  140  A    between atoms: _387  and  _390
REMARK  141  A    between atoms: _390  and  _391
REMARK  142  A    between atoms: _396  and  _397
REMARK                            x       y       z     vdW  Elec       q    Type
REMARK                         _______ _______ _______ _____ _____    ______ ____
ROOT
ATOM      1  O   HOH     1      77.622   9.579  38.141  0.00  0.00    +0.000 OA
ENDROOT
TORSDOF 0
REMARK  Name = ../refined-set-2016/1uz4/1uz4_pocket.pdb
REMARK  142 active torsions:
REMARK  status: ('A' for Active; 'I' for Inactive)
REMARK    1  A    between atoms: _1  and  _3
REMARK    2  A    between atoms: _3  and  _4
REMARK    3  A    between atoms: _3  and  _6
REMARK    4  A    between atoms: _6  and  _7
REMARK    5  A    between atoms: _12  and  _14
REMARK    6  A    between atoms: _14  and  _15
REMARK    7  A    between atoms: _14  and  _17
REMARK    8  A    between atoms: _17  and  _18
REMARK    9  A    between atoms: _28  and  _30
REMARK   10  A    between atoms: _30  and  _31
REMARK   11  A    between atoms: _30  and  _33
REMARK   12  A    between atoms: _34  and  _35
REMARK   13  A    between atoms: _35  and  _36
REMARK   14  A    between atoms: _45  and  _47
REMARK   15  A    between atoms: _47  and  _48
REMARK   16  A    between atoms: _47  and  _50
REMARK   17  A    between atoms: _50  and  _51
REMARK   18  A    between atoms: _56  and  _57
REMARK   19  A    between atoms: _59  and  _61
REMARK   20  A    between atoms: _61  and  _62
REMARK   21  A    between atoms: _61  and  _64
REMARK   22  A    between atoms: _64  and  _65
REMARK   23  A    between atoms: _70  and  _72
REMARK   24  A    between atoms: _72  and  _73
REMARK   25  A    between atoms: _72  and  _75
REMARK   26  A    between atoms: _75  and  _76
REMARK   27  A    between atoms: _82  and  _84
REMARK   28  A    between atoms: _84  and  _85
REMARK   29  A    between atoms: _84  and  _87
REMARK   30  A    between atoms: _87  and  _88
REMARK   31  A    between atoms: _98  and  _100
REMARK   32  A    between atoms: _100  and  _101
REMARK   33  A    between atoms: _100  and  _103
REMARK   34  A    between atoms: _103  and  _104
REMARK   35  A    between atoms: _104  and  _105
REMARK   36  A    between atoms: _110  and  _112
REMARK   37  A    between atoms: _112  and  _113
REMARK   38  A    between atoms: _112  and  _115
REMARK   39  A    between atoms: _115  and  _116
REMARK   40  A    between atoms: _126  and  _128
REMARK   41  A    between atoms: _128  and  _129
REMARK   42  A    between atoms: _128  and  _131
REMARK   43  A    between atoms: _131  and  _132
REMARK   44  A    between atoms: _134  and  _136
REMARK   45  A    between atoms: _136  and  _137
REMARK   46  A    between atoms: _136  and  _139
REMARK   47  A    between atoms: _139  and  _140
REMARK   48  A    between atoms: _145  and  _147
REMARK   49  A    between atoms: _147  and  _148
REMARK   50  A    between atoms: _147  and  _150
REMARK   51  A    between atoms: _150  and  _151
REMARK   52  A    between atoms: _151  and  _152
REMARK   53  A    between atoms: _155  and  _157
REMARK   54  A    between atoms: _157  and  _158
REMARK   55  A    between atoms: _157  and  _160
REMARK   56  A    between atoms: _160  and  _161
REMARK   57  A    between atoms: _161  and  _162
REMARK   58  A    between atoms: _162  and  _163
REMARK   59  A    between atoms: _172  and  _174
REMARK   60  A    between atoms: _174  and  _175
REMARK   61  A    between atoms: _177  and  _179
REMARK   62  A    between atoms: _179  and  _180
REMARK   63  A    between atoms: _179  and  _182
REMARK   64  A    between atoms: _182  and  _183
REMARK   65  A    between atoms: _183  and  _184
REMARK   66  A    between atoms: _187  and  _189
REMARK   67  A    between atoms: _189  and  _190
REMARK   68  A    between atoms: _189  and  _192
REMARK   69  A    between atoms: _192  and  _193
REMARK   70  A    between atoms: _198  and  _200
REMARK   71  A    between atoms: _200  and  _201
REMARK   72  A    between atoms: _200  and  _203
REMARK   73  A    between atoms: _203  and  _204
REMARK   74  A    between atoms: _204  and  _205
REMARK   75  A    between atoms: _207  and  _209
REMARK   76  A    between atoms: _209  and  _210
REMARK   77  A    between atoms: _209  and  _212
REMARK   78  A    between atoms: _212  and  _213
REMARK   79  A    between atoms: _223  and  _225
REMARK   80  A    between atoms: _225  and  _226
REMARK   81  A    between atoms: _225  and  _228
REMARK   82  A    between atoms: _228  and  _229
REMARK   83  A    between atoms: _229  and  _230
REMARK   84  A    between atoms: _230  and  _231
REMARK   85  A    between atoms: _240  and  _242
REMARK   86  A    between atoms: _242  and  _243
REMARK   87  A    between atoms: _242  and  _245
REMARK   88  A    between atoms: _245  and  _246
REMARK   89  A    between atoms: _251  and  _253
REMARK   90  A    between atoms: _253  and  _254
REMARK   91  A    between atoms: _253  and  _256
REMARK   92  A    between atoms: _256  and  _257
REMARK   93  A    between atoms: _267  and  _269
REMARK   94  A    between atoms: _269  and  _270
REMARK   95  A    between atoms: _269  and  _272
REMARK   96  A    between atoms: _272  and  _273
REMARK   97  A    between atoms: _273  and  _274
REMARK   98  A    between atoms: _277  and  _279
REMARK   99  A    between atoms: _279  and  _280
REMARK  100  A    between atoms: _279  and  _282
REMARK  101  A    between atoms: _282  and  _283
REMARK  102  A    between atoms: _283  and  _284
REMARK  103  A    between atoms: _287  and  _289
REMARK  104  A    between atoms: _289  and  _290
REMARK  105  A    between atoms: _289  and  _292
REMARK  106  A    between atoms: _292  and  _293
REMARK  107  A    between atoms: _299  and  _301
REMARK  108  A    between atoms: _301  and  _302
REMARK  109  A    between atoms: _304  and  _306
REMARK  110  A    between atoms: _306  and  _307
REMARK  111  A    between atoms: _306  and  _309
REMARK  112  A    between atoms: _309  and  _310
REMARK  113  A    between atoms: _320  and  _322
REMARK  114  A    between atoms: _322  and  _323
REMARK  115  A    between atoms: _326  and  _328
REMARK  116  A    between atoms: _328  and  _329
REMARK  117  A    between atoms: _331  and  _333
REMARK  118  A    between atoms: _333  and  _334
REMARK  119  A    between atoms: _333  and  _336
REMARK  120  A    between atoms: _336  and  _337
REMARK  121  A    between atoms: _341  and  _342
REMARK  122  A    between atoms: _348  and  _349
REMARK  123  A    between atoms: _354  and  _356
REMARK  124  A    between atoms: _356  and  _357
REMARK  125  A    between atoms: _356  and  _359
REMARK  126  A    between atoms: _359  and  _360
REMARK  127  A    between atoms: _360  and  _361
REMARK  128  A    between atoms: _366  and  _368
REMARK  129  A    between atoms: _368  and  _369
REMARK  130  A    between atoms: _368  and  _371
REMARK  131  A    between atoms: _371  and  _372
REMARK  132  A    between atoms: _372  and  _373
REMARK  133  A    between atoms: _376  and  _378
REMARK  134  A    between atoms: _378  and  _379
REMARK  135  A    between atoms: _378  and  _381
REMARK  136  A    between atoms: _381  and  _382
REMARK  137  A    between atoms: _382  and  _383
REMARK  138  A    between atoms: _385  and  _387
REMARK  139  A    between atoms: _387  and  _388
REMARK  140  A    between atoms: _387  and  _390
REMARK  141  A    between atoms: _390  and  _391
REMARK  142  A    between atoms: _396  and  _397
REMARK                            x       y       z     vdW  Elec       q    Type
REMARK                         _______ _______ _______ _____ _____    ______ ____
ROOT
ATOM      1  O   HOH     1      75.532  15.956  37.129  0.00  0.00    +0.000 OA
ENDROOT
TORSDOF 0
REMARK  Name = ../refined-set-2016/1uz4/1uz4_pocket.pdb
REMARK  142 active torsions:
REMARK  status: ('A' for Active; 'I' for Inactive)
REMARK    1  A    between atoms: _1  and  _3
REMARK    2  A    between atoms: _3  and  _4
REMARK    3  A    between atoms: _3  and  _6
REMARK    4  A    between atoms: _6  and  _7
REMARK    5  A    between atoms: _12  and  _14
REMARK    6  A    between atoms: _14  and  _15
REMARK    7  A    between atoms: _14  and  _17
REMARK    8  A    between atoms: _17  and  _18
REMARK    9  A    between atoms: _28  and  _30
REMARK   10  A    between atoms: _30  and  _31
REMARK   11  A    between atoms: _30  and  _33
REMARK   12  A    between atoms: _34  and  _35
REMARK   13  A    between atoms: _35  and  _36
REMARK   14  A    between atoms: _45  and  _47
REMARK   15  A    between atoms: _47  and  _48
REMARK   16  A    between atoms: _47  and  _50
REMARK   17  A    between atoms: _50  and  _51
REMARK   18  A    between atoms: _56  and  _57
REMARK   19  A    between atoms: _59  and  _61
REMARK   20  A    between atoms: _61  and  _62
REMARK   21  A    between atoms: _61  and  _64
REMARK   22  A    between atoms: _64  and  _65
REMARK   23  A    between atoms: _70  and  _72
REMARK   24  A    between atoms: _72  and  _73
REMARK   25  A    between atoms: _72  and  _75
REMARK   26  A    between atoms: _75  and  _76
REMARK   27  A    between atoms: _82  and  _84
REMARK   28  A    between atoms: _84  and  _85
REMARK   29  A    between atoms: _84  and  _87
REMARK   30  A    between atoms: _87  and  _88
REMARK   31  A    between atoms: _98  and  _100
REMARK   32  A    between atoms: _100  and  _101
REMARK   33  A    between atoms: _100  and  _103
REMARK   34  A    between atoms: _103  and  _104
REMARK   35  A    between atoms: _104  and  _105
REMARK   36  A    between atoms: _110  and  _112
REMARK   37  A    between atoms: _112  and  _113
REMARK   38  A    between atoms: _112  and  _115
REMARK   39  A    between atoms: _115  and  _116
REMARK   40  A    between atoms: _126  and  _128
REMARK   41  A    between atoms: _128  and  _129
REMARK   42  A    between atoms: _128  and  _131
REMARK   43  A    between atoms: _131  and  _132
REMARK   44  A    between atoms: _134  and  _136
REMARK   45  A    between atoms: _136  and  _137
REMARK   46  A    between atoms: _136  and  _139
REMARK   47  A    between atoms: _139  and  _140
REMARK   48  A    between atoms: _145  and  _147
REMARK   49  A    between atoms: _147  and  _148
REMARK   50  A    between atoms: _147  and  _150
REMARK   51  A    between atoms: _150  and  _151
REMARK   52  A    between atoms: _151  and  _152
REMARK   53  A    between atoms: _155  and  _157
REMARK   54  A    between atoms: _157  and  _158
REMARK   55  A    between atoms: _157  and  _160
REMARK   56  A    between atoms: _160  and  _161
REMARK   57  A    between atoms: _161  and  _162
REMARK   58  A    between atoms: _162  and  _163
REMARK   59  A    between atoms: _172  and  _174
REMARK   60  A    between atoms: _174  and  _175
REMARK   61  A    between atoms: _177  and  _179
REMARK   62  A    between atoms: _179  and  _180
REMARK   63  A    between atoms: _179  and  _182
REMARK   64  A    between atoms: _182  and  _183
REMARK   65  A    between atoms: _183  and  _184
REMARK   66  A    between atoms: _187  and  _189
REMARK   67  A    between atoms: _189  and  _190
REMARK   68  A    between atoms: _189  and  _192
REMARK   69  A    between atoms: _192  and  _193
REMARK   70  A    between atoms: _198  and  _200
REMARK   71  A    between atoms: _200  and  _201
REMARK   72  A    between atoms: _200  and  _203
REMARK   73  A    between atoms: _203  and  _204
REMARK   74  A    between atoms: _204  and  _205
REMARK   75  A    between atoms: _207  and  _209
REMARK   76  A    between atoms: _209  and  _210
REMARK   77  A    between atoms: _209  and  _212
REMARK   78  A    between atoms: _212  and  _213
REMARK   79  A    between atoms: _223  and  _225
REMARK   80  A    between atoms: _225  and  _226
REMARK   81  A    between atoms: _225  and  _228
REMARK   82  A    between atoms: _228  and  _229
REMARK   83  A    between atoms: _229  and  _230
REMARK   84  A    between atoms: _230  and  _231
REMARK   85  A    between atoms: _240  and  _242
REMARK   86  A    between atoms: _242  and  _243
REMARK   87  A    between atoms: _242  and  _245
REMARK   88  A    between atoms: _245  and  _246
REMARK   89  A    between atoms: _251  and  _253
REMARK   90  A    between atoms: _253  and  _254
REMARK   91  A    between atoms: _253  and  _256
REMARK   92  A    between atoms: _256  and  _257
REMARK   93  A    between atoms: _267  and  _269
REMARK   94  A    between atoms: _269  and  _270
REMARK   95  A    between atoms: _269  and  _272
REMARK   96  A    between atoms: _272  and  _273
REMARK   97  A    between atoms: _273  and  _274
REMARK   98  A    between atoms: _277  and  _279
REMARK   99  A    between atoms: _279  and  _280
REMARK  100  A    between atoms: _279  and  _282
REMARK  101  A    between atoms: _282  and  _283
REMARK  102  A    between atoms: _283  and  _284
REMARK  103  A    between atoms: _287  and  _289
REMARK  104  A    between atoms: _289  and  _290
REMARK  105  A    between atoms: _289  and  _292
REMARK  106  A    between atoms: _292  and  _293
REMARK  107  A    between atoms: _299  and  _301
REMARK  108  A    between atoms: _301  and  _302
REMARK  109  A    between atoms: _304  and  _306
REMARK  110  A    between atoms: _306  and  _307
REMARK  111  A    between atoms: _306  and  _309
REMARK  112  A    between atoms: _309  and  _310
REMARK  113  A    between atoms: _320  and  _322
REMARK  114  A    between atoms: _322  and  _323
REMARK  115  A    between atoms: _326  and  _328
REMARK  116  A    between atoms: _328  and  _329
REMARK  117  A    between atoms: _331  and  _333
REMARK  118  A    between atoms: _333  and  _334
REMARK  119  A    between atoms: _333  and  _336
REMARK  120  A    between atoms: _336  and  _337
REMARK  121  A    between atoms: _341  and  _342
REMARK  122  A    between atoms: _348  and  _349
REMARK  123  A    between atoms: _354  and  _356
REMARK  124  A    between atoms: _356  and  _357
REMARK  125  A    between atoms: _356  and  _359
REMARK  126  A    between atoms: _359  and  _360
REMARK  127  A    between atoms: _360  and  _361
REMARK  128  A    between atoms: _366  and  _368
REMARK  129  A    between atoms: _368  and  _369
REMARK  130  A    between atoms: _368  and  _371
REMARK  131  A    between atoms: _371  and  _372
REMARK  132  A    between atoms: _372  and  _373
REMARK  133  A    between atoms: _376  and  _378
REMARK  134  A    between atoms: _378  and  _379
REMARK  135  A    between atoms: _378  and  _381
REMARK  136  A    between atoms: _381  and  _382
REMARK  137  A    between atoms: _382  and  _383
REMARK  138  A    between atoms: _385  and  _387
REMARK  139  A    between atoms: _387  and  _388
REMARK  140  A    between atoms: _387  and  _390
REMARK  141  A    between atoms: _390  and  _391
REMARK  142  A    between atoms: _396  and  _397
REMARK                            x       y       z     vdW  Elec       q    Type
REMARK                         _______ _______ _______ _____ _____    ______ ____
ROOT
ATOM      1  O   HOH     1      75.496   4.284  34.230  0.00  0.00    +0.000 OA
ENDROOT
TORSDOF 0
REMARK  Name = ../refined-set-2016/1uz4/1uz4_pocket.pdb
REMARK  142 active torsions:
REMARK  status: ('A' for Active; 'I' for Inactive)
REMARK    1  A    between atoms: _1  and  _3
REMARK    2  A    between atoms: _3  and  _4
REMARK    3  A    between atoms: _3  and  _6
REMARK    4  A    between atoms: _6  and  _7
REMARK    5  A    between atoms: _12  and  _14
REMARK    6  A    between atoms: _14  and  _15
REMARK    7  A    between atoms: _14  and  _17
REMARK    8  A    between atoms: _17  and  _18
REMARK    9  A    between atoms: _28  and  _30
REMARK   10  A    between atoms: _30  and  _31
REMARK   11  A    between atoms: _30  and  _33
REMARK   12  A    between atoms: _34  and  _35
REMARK   13  A    between atoms: _35  and  _36
REMARK   14  A    between atoms: _45  and  _47
REMARK   15  A    between atoms: _47  and  _48
REMARK   16  A    between atoms: _47  and  _50
REMARK   17  A    between atoms: _50  and  _51
REMARK   18  A    between atoms: _56  and  _57
REMARK   19  A    between atoms: _59  and  _61
REMARK   20  A    between atoms: _61  and  _62
REMARK   21  A    between atoms: _61  and  _64
REMARK   22  A    between atoms: _64  and  _65
REMARK   23  A    between atoms: _70  and  _72
REMARK   24  A    between atoms: _72  and  _73
REMARK   25  A    between atoms: _72  and  _75
REMARK   26  A    between atoms: _75  and  _76
REMARK   27  A    between atoms: _82  and  _84
REMARK   28  A    between atoms: _84  and  _85
REMARK   29  A    between atoms: _84  and  _87
REMARK   30  A    between atoms: _87  and  _88
REMARK   31  A    between atoms: _98  and  _100
REMARK   32  A    between atoms: _100  and  _101
REMARK   33  A    between atoms: _100  and  _103
REMARK   34  A    between atoms: _103  and  _104
REMARK   35  A    between atoms: _104  and  _105
REMARK   36  A    between atoms: _110  and  _112
REMARK   37  A    between atoms: _112  and  _113
REMARK   38  A    between atoms: _112  and  _115
REMARK   39  A    between atoms: _115  and  _116
REMARK   40  A    between atoms: _126  and  _128
REMARK   41  A    between atoms: _128  and  _129
REMARK   42  A    between atoms: _128  and  _131
REMARK   43  A    between atoms: _131  and  _132
REMARK   44  A    between atoms: _134  and  _136
REMARK   45  A    between atoms: _136  and  _137
REMARK   46  A    between atoms: _136  and  _139
REMARK   47  A    between atoms: _139  and  _140
REMARK   48  A    between atoms: _145  and  _147
REMARK   49  A    between atoms: _147  and  _148
REMARK   50  A    between atoms: _147  and  _150
REMARK   51  A    between atoms: _150  and  _151
REMARK   52  A    between atoms: _151  and  _152
REMARK   53  A    between atoms: _155  and  _157
REMARK   54  A    between atoms: _157  and  _158
REMARK   55  A    between atoms: _157  and  _160
REMARK   56  A    between atoms: _160  and  _161
REMARK   57  A    between atoms: _161  and  _162
REMARK   58  A    between atoms: _162  and  _163
REMARK   59  A    between atoms: _172  and  _174
REMARK   60  A    between atoms: _174  and  _175
REMARK   61  A    between atoms: _177  and  _179
REMARK   62  A    between atoms: _179  and  _180
REMARK   63  A    between atoms: _179  and  _182
REMARK   64  A    between atoms: _182  and  _183
REMARK   65  A    between atoms: _183  and  _184
REMARK   66  A    between atoms: _187  and  _189
REMARK   67  A    between atoms: _189  and  _190
REMARK   68  A    between atoms: _189  and  _192
REMARK   69  A    between atoms: _192  and  _193
REMARK   70  A    between atoms: _198  and  _200
REMARK   71  A    between atoms: _200  and  _201
REMARK   72  A    between atoms: _200  and  _203
REMARK   73  A    between atoms: _203  and  _204
REMARK   74  A    between atoms: _204  and  _205
REMARK   75  A    between atoms: _207  and  _209
REMARK   76  A    between atoms: _209  and  _210
REMARK   77  A    between atoms: _209  and  _212
REMARK   78  A    between atoms: _212  and  _213
REMARK   79  A    between atoms: _223  and  _225
REMARK   80  A    between atoms: _225  and  _226
REMARK   81  A    between atoms: _225  and  _228
REMARK   82  A    between atoms: _228  and  _229
REMARK   83  A    between atoms: _229  and  _230
REMARK   84  A    between atoms: _230  and  _231
REMARK   85  A    between atoms: _240  and  _242
REMARK   86  A    between atoms: _242  and  _243
REMARK   87  A    between atoms: _242  and  _245
REMARK   88  A    between atoms: _245  and  _246
REMARK   89  A    between atoms: _251  and  _253
REMARK   90  A    between atoms: _253  and  _254
REMARK   91  A    between atoms: _253  and  _256
REMARK   92  A    between atoms: _256  and  _257
REMARK   93  A    between atoms: _267  and  _269
REMARK   94  A    between atoms: _269  and  _270
REMARK   95  A    between atoms: _269  and  _272
REMARK   96  A    between atoms: _272  and  _273
REMARK   97  A    between atoms: _273  and  _274
REMARK   98  A    between atoms: _277  and  _279
REMARK   99  A    between atoms: _279  and  _280
REMARK  100  A    between atoms: _279  and  _282
REMARK  101  A    between atoms: _282  and  _283
REMARK  102  A    between atoms: _283  and  _284
REMARK  103  A    between atoms: _287  and  _289
REMARK  104  A    between atoms: _289  and  _290
REMARK  105  A    between atoms: _289  and  _292
REMARK  106  A    between atoms: _292  and  _293
REMARK  107  A    between atoms: _299  and  _301
REMARK  108  A    between atoms: _301  and  _302
REMARK  109  A    between atoms: _304  and  _306
REMARK  110  A    between atoms: _306  and  _307
REMARK  111  A    between atoms: _306  and  _309
REMARK  112  A    between atoms: _309  and  _310
REMARK  113  A    between atoms: _320  and  _322
REMARK  114  A    between atoms: _322  and  _323
REMARK  115  A    between atoms: _326  and  _328
REMARK  116  A    between atoms: _328  and  _329
REMARK  117  A    between atoms: _331  and  _333
REMARK  118  A    between atoms: _333  and  _334
REMARK  119  A    between atoms: _333  and  _336
REMARK  120  A    between atoms: _336  and  _337
REMARK  121  A    between atoms: _341  and  _342
REMARK  122  A    between atoms: _348  and  _349
REMARK  123  A    between atoms: _354  and  _356
REMARK  124  A    between atoms: _356  and  _357
REMARK  125  A    between atoms: _356  and  _359
REMARK  126  A    between atoms: _359  and  _360
REMARK  127  A    between atoms: _360  and  _361
REMARK  128  A    between atoms: _366  and  _368
REMARK  129  A    between atoms: _368  and  _369
REMARK  130  A    between atoms: _368  and  _371
REMARK  131  A    between atoms: _371  and  _372
REMARK  132  A    between atoms: _372  and  _373
REMARK  133  A    between atoms: _376  and  _378
REMARK  134  A    between atoms: _378  and  _379
REMARK  135  A    between atoms: _378  and  _381
REMARK  136  A    between atoms: _381  and  _382
REMARK  137  A    between atoms: _382  and  _383
REMARK  138  A    between atoms: _385  and  _387
REMARK  139  A    between atoms: _387  and  _388
REMARK  140  A    between atoms: _387  and  _390
REMARK  141  A    between atoms: _390  and  _391
REMARK  142  A    between atoms: _396  and  _397
REMARK                            x       y       z     vdW  Elec       q    Type
REMARK                         _______ _______ _______ _____ _____    ______ ____
ROOT
ATOM      1  O   HOH     1      78.748   4.916  32.500  0.00  0.00    +0.000 OA
ENDROOT
TORSDOF 0
