REMARK  Name = ../refined-set-2016/1tni/1tni_pocket.pdb
REMARK  119 active torsions:
REMARK  status: ('A' for Active; 'I' for Inactive)
REMARK    1  A    between atoms: _1  and  _5
REMARK    2  A    between atoms: _5  and  _6
REMARK    3  A    between atoms: _5  and  _8
REMARK    4  A    between atoms: _8  and  _9
REMARK    5  A    between atoms: _12  and  _14
REMARK    6  A    between atoms: _14  and  _15
REMARK    7  A    between atoms: _14  and  _17
REMARK    8  A    between atoms: _20  and  _22
REMARK    9  A    between atoms: _22  and  _23
REMARK   10  A    between atoms: _22  and  _25
REMARK   11  A    between atoms: _25  and  _26
REMARK   12  A    between atoms: _31  and  _33
REMARK   13  A    between atoms: _33  and  _34
REMARK   14  A    between atoms: _33  and  _36
REMARK   15  A    between atoms: _36  and  _37
REMARK   16  A    between atoms: _42  and  _44
REMARK   17  A    between atoms: _44  and  _45
REMARK   18  A    between atoms: _44  and  _47
REMARK   19  A    between atoms: _47  and  _48
REMARK   20  A    between atoms: _48  and  _49
REMARK   21  A    between atoms: _49  and  _50
REMARK   22  A    between atoms: _50  and  _51
REMARK   23  A    between atoms: _55  and  _57
REMARK   24  A    between atoms: _57  and  _58
REMARK   25  A    between atoms: _57  and  _60
REMARK   26  A    between atoms: _60  and  _61
REMARK   27  A    between atoms: _66  and  _67
REMARK   28  A    between atoms: _69  and  _71
REMARK   29  A    between atoms: _71  and  _72
REMARK   30  A    between atoms: _71  and  _74
REMARK   31  A    between atoms: _74  and  _75
REMARK   32  A    between atoms: _80  and  _81
REMARK   33  A    between atoms: _83  and  _85
REMARK   34  A    between atoms: _85  and  _86
REMARK   35  A    between atoms: _89  and  _91
REMARK   36  A    between atoms: _91  and  _92
REMARK   37  A    between atoms: _91  and  _94
REMARK   38  A    between atoms: _94  and  _95
REMARK   39  A    between atoms: _95  and  _96
REMARK   40  A    between atoms: _96  and  _97
REMARK   41  A    between atoms: _97  and  _98
REMARK   42  A    between atoms: _102  and  _104
REMARK   43  A    between atoms: _104  and  _105
REMARK   44  A    between atoms: _104  and  _107
REMARK   45  A    between atoms: _107  and  _108
REMARK   46  A    between atoms: _111  and  _113
REMARK   47  A    between atoms: _113  and  _114
REMARK   48  A    between atoms: _113  and  _116
REMARK   49  A    between atoms: _116  and  _117
REMARK   50  A    between atoms: _119  and  _121
REMARK   51  A    between atoms: _121  and  _122
REMARK   52  A    between atoms: _121  and  _124
REMARK   53  A    between atoms: _124  and  _125
REMARK   54  A    between atoms: _125  and  _221
REMARK   55  A    between atoms: _126  and  _128
REMARK   56  A    between atoms: _128  and  _129
REMARK   57  A    between atoms: _128  and  _131
REMARK   58  A    between atoms: _131  and  _132
REMARK   59  A    between atoms: _132  and  _133
REMARK   60  A    between atoms: _138  and  _140
REMARK   61  A    between atoms: _140  and  _141
REMARK   62  A    between atoms: _143  and  _145
REMARK   63  A    between atoms: _145  and  _146
REMARK   64  A    between atoms: _145  and  _148
REMARK   65  A    between atoms: _148  and  _149
REMARK   66  A    between atoms: _152  and  _154
REMARK   67  A    between atoms: _154  and  _155
REMARK   68  A    between atoms: _154  and  _157
REMARK   69  A    between atoms: _157  and  _158
REMARK   70  A    between atoms: _160  and  _162
REMARK   71  A    between atoms: _162  and  _163
REMARK   72  A    between atoms: _165  and  _167
REMARK   73  A    between atoms: _167  and  _168
REMARK   74  A    between atoms: _167  and  _170
REMARK   75  A    between atoms: _173  and  _175
REMARK   76  A    between atoms: _175  and  _176
REMARK   77  A    between atoms: _175  and  _178
REMARK   78  A    between atoms: _178  and  _179
REMARK   79  A    between atoms: _181  and  _183
REMARK   80  A    between atoms: _183  and  _184
REMARK   81  A    between atoms: _183  and  _186
REMARK   82  A    between atoms: _186  and  _187
REMARK   83  A    between atoms: _197  and  _199
REMARK   84  A    between atoms: _199  and  _200
REMARK   85  A    between atoms: _202  and  _204
REMARK   86  A    between atoms: _204  and  _205
REMARK   87  A    between atoms: _204  and  _207
REMARK   88  A    between atoms: _207  and  _208
REMARK   89  A    between atoms: _210  and  _212
REMARK   90  A    between atoms: _212  and  _213
REMARK   91  A    between atoms: _215  and  _217
REMARK   92  A    between atoms: _217  and  _218
REMARK   93  A    between atoms: _217  and  _220
REMARK   94  A    between atoms: _220  and  _221
REMARK   95  A    between atoms: _222  and  _224
REMARK   96  A    between atoms: _224  and  _225
REMARK   97  A    between atoms: _228  and  _230
REMARK   98  A    between atoms: _230  and  _231
REMARK   99  A    between atoms: _230  and  _233
REMARK  100  A    between atoms: _233  and  _234
REMARK  101  A    between atoms: _234  and  _235
REMARK  102  A    between atoms: _240  and  _242
REMARK  103  A    between atoms: _242  and  _243
REMARK  104  A    between atoms: _242  and  _245
REMARK  105  A    between atoms: _245  and  _246
REMARK  106  A    between atoms: _246  and  _247
REMARK  107  A    between atoms: _247  and  _248
REMARK  108  A    between atoms: _248  and  _249
REMARK  109  A    between atoms: _254  and  _255
REMARK  110  A    between atoms: _260  and  _262
REMARK  111  A    between atoms: _262  and  _263
REMARK  112  A    between atoms: _265  and  _267
REMARK  113  A    between atoms: _267  and  _268
REMARK  114  A    between atoms: _267  and  _270
REMARK  115  A    between atoms: _273  and  _275
REMARK  116  A    between atoms: _275  and  _276
REMARK  117  A    between atoms: _275  and  _278
REMARK  118  A    between atoms: _278  and  _279
REMARK  119  A    between atoms: _284  and  _285
REMARK                            x       y       z     vdW  Elec       q    Type
REMARK                         _______ _______ _______ _____ _____    ______ ____
ROOT
ATOM      1  C   ILE A   1      36.825  20.214  18.288  0.00  0.00    +0.202 C 
ATOM      2  O   ILE A   1      37.939  20.325  18.823  0.00  0.00    -0.277 OA
ATOM      3  N   VAL A   2      36.659  19.928  17.002  0.00  0.00    -0.301 N 
ATOM      4  H   VAL A   2      35.691  19.788  16.649  0.00  0.00    +0.150 HD
ENDROOT
BRANCH   1   5
ATOM      5  CA  ILE A   1      35.554  20.430  19.099  0.00  0.00    +0.013 C 
BRANCH   5   6
ATOM      6  N   ILE A   1      35.564  19.537  20.262  0.00  0.00    +0.387 N 
ATOM      7  H1  ILE A   1      36.394  19.747  20.852  0.00  0.00    -0.089 HD
ATOM      8  H2  ILE A   1      34.697  19.683  20.817  0.00  0.00    -0.089 HD
ATOM      9  H3  ILE A   1      35.608  18.549  19.939  0.00  0.00    -0.089 HD
ENDBRANCH   5   6
BRANCH   5  10
ATOM     10  CB  ILE A   1      35.540  21.962  19.488  0.00  0.00    -0.011 C 
ATOM     11  CG2 ILE A   1      35.574  22.823  18.194  0.00  0.00    -0.002 C 
BRANCH  10  12
ATOM     12  CG1 ILE A   1      34.340  22.304  20.327  0.00  0.00    -0.002 C 
ATOM     13  CD1 ILE A   1      33.011  22.392  19.579  0.00  0.00    -0.000 C 
ENDBRANCH  10  12
ENDBRANCH   5  10
ENDBRANCH   1   5
BRANCH   3  14
ATOM     14  CA  VAL A   2      37.769  19.800  16.055  0.00  0.00    +0.137 C 
BRANCH  14  15
ATOM     15  CB  VAL A   2      37.567  18.577  15.124  0.00  0.00    +0.026 C 
ATOM     16  CG2 VAL A   2      37.303  17.275  15.912  0.00  0.00    +0.002 C 
ATOM     17  CG1 VAL A   2      38.805  18.487  14.236  0.00  0.00    +0.002 C 
ENDBRANCH  14  15
BRANCH  14  18
ATOM     18  C   VAL A   2      37.881  21.063  15.175  0.00  0.00    +0.227 C 
ATOM     19  O   VAL A   2      36.906  21.601  14.631  0.00  0.00    -0.286 OA
ENDBRANCH  14  18
ENDBRANCH   3  14
TORSDOF 7
REMARK  Name = ../refined-set-2016/1tni/1tni_pocket.pdb
REMARK  119 active torsions:
REMARK  status: ('A' for Active; 'I' for Inactive)
REMARK    1  A    between atoms: _1  and  _5
REMARK    2  A    between atoms: _5  and  _6
REMARK    3  A    between atoms: _5  and  _8
REMARK    4  A    between atoms: _8  and  _9
REMARK    5  A    between atoms: _12  and  _14
REMARK    6  A    between atoms: _14  and  _15
REMARK    7  A    between atoms: _14  and  _17
REMARK    8  A    between atoms: _20  and  _22
REMARK    9  A    between atoms: _22  and  _23
REMARK   10  A    between atoms: _22  and  _25
REMARK   11  A    between atoms: _25  and  _26
REMARK   12  A    between atoms: _31  and  _33
REMARK   13  A    between atoms: _33  and  _34
REMARK   14  A    between atoms: _33  and  _36
REMARK   15  A    between atoms: _36  and  _37
REMARK   16  A    between atoms: _42  and  _44
REMARK   17  A    between atoms: _44  and  _45
REMARK   18  A    between atoms: _44  and  _47
REMARK   19  A    between atoms: _47  and  _48
REMARK   20  A    between atoms: _48  and  _49
REMARK   21  A    between atoms: _49  and  _50
REMARK   22  A    between atoms: _50  and  _51
REMARK   23  A    between atoms: _55  and  _57
REMARK   24  A    between atoms: _57  and  _58
REMARK   25  A    between atoms: _57  and  _60
REMARK   26  A    between atoms: _60  and  _61
REMARK   27  A    between atoms: _66  and  _67
REMARK   28  A    between atoms: _69  and  _71
REMARK   29  A    between atoms: _71  and  _72
REMARK   30  A    between atoms: _71  and  _74
REMARK   31  A    between atoms: _74  and  _75
REMARK   32  A    between atoms: _80  and  _81
REMARK   33  A    between atoms: _83  and  _85
REMARK   34  A    between atoms: _85  and  _86
REMARK   35  A    between atoms: _89  and  _91
REMARK   36  A    between atoms: _91  and  _92
REMARK   37  A    between atoms: _91  and  _94
REMARK   38  A    between atoms: _94  and  _95
REMARK   39  A    between atoms: _95  and  _96
REMARK   40  A    between atoms: _96  and  _97
REMARK   41  A    between atoms: _97  and  _98
REMARK   42  A    between atoms: _102  and  _104
REMARK   43  A    between atoms: _104  and  _105
REMARK   44  A    between atoms: _104  and  _107
REMARK   45  A    between atoms: _107  and  _108
REMARK   46  A    between atoms: _111  and  _113
REMARK   47  A    between atoms: _113  and  _114
REMARK   48  A    between atoms: _113  and  _116
REMARK   49  A    between atoms: _116  and  _117
REMARK   50  A    between atoms: _119  and  _121
REMARK   51  A    between atoms: _121  and  _122
REMARK   52  A    between atoms: _121  and  _124
REMARK   53  A    between atoms: _124  and  _125
REMARK   54  A    between atoms: _125  and  _221
REMARK   55  A    between atoms: _126  and  _128
REMARK   56  A    between atoms: _128  and  _129
REMARK   57  A    between atoms: _128  and  _131
REMARK   58  A    between atoms: _131  and  _132
REMARK   59  A    between atoms: _132  and  _133
REMARK   60  A    between atoms: _138  and  _140
REMARK   61  A    between atoms: _140  and  _141
REMARK   62  A    between atoms: _143  and  _145
REMARK   63  A    between atoms: _145  and  _146
REMARK   64  A    between atoms: _145  and  _148
REMARK   65  A    between atoms: _148  and  _149
REMARK   66  A    between atoms: _152  and  _154
REMARK   67  A    between atoms: _154  and  _155
REMARK   68  A    between atoms: _154  and  _157
REMARK   69  A    between atoms: _157  and  _158
REMARK   70  A    between atoms: _160  and  _162
REMARK   71  A    between atoms: _162  and  _163
REMARK   72  A    between atoms: _165  and  _167
REMARK   73  A    between atoms: _167  and  _168
REMARK   74  A    between atoms: _167  and  _170
REMARK   75  A    between atoms: _173  and  _175
REMARK   76  A    between atoms: _175  and  _176
REMARK   77  A    between atoms: _175  and  _178
REMARK   78  A    between atoms: _178  and  _179
REMARK   79  A    between atoms: _181  and  _183
REMARK   80  A    between atoms: _183  and  _184
REMARK   81  A    between atoms: _183  and  _186
REMARK   82  A    between atoms: _186  and  _187
REMARK   83  A    between atoms: _197  and  _199
REMARK   84  A    between atoms: _199  and  _200
REMARK   85  A    between atoms: _202  and  _204
REMARK   86  A    between atoms: _204  and  _205
REMARK   87  A    between atoms: _204  and  _207
REMARK   88  A    between atoms: _207  and  _208
REMARK   89  A    between atoms: _210  and  _212
REMARK   90  A    between atoms: _212  and  _213
REMARK   91  A    between atoms: _215  and  _217
REMARK   92  A    between atoms: _217  and  _218
REMARK   93  A    between atoms: _217  and  _220
REMARK   94  A    between atoms: _220  and  _221
REMARK   95  A    between atoms: _222  and  _224
REMARK   96  A    between atoms: _224  and  _225
REMARK   97  A    between atoms: _228  and  _230
REMARK   98  A    between atoms: _230  and  _231
REMARK   99  A    between atoms: _230  and  _233
REMARK  100  A    between atoms: _233  and  _234
REMARK  101  A    between atoms: _234  and  _235
REMARK  102  A    between atoms: _240  and  _242
REMARK  103  A    between atoms: _242  and  _243
REMARK  104  A    between atoms: _242  and  _245
REMARK  105  A    between atoms: _245  and  _246
REMARK  106  A    between atoms: _246  and  _247
REMARK  107  A    between atoms: _247  and  _248
REMARK  108  A    between atoms: _248  and  _249
REMARK  109  A    between atoms: _254  and  _255
REMARK  110  A    between atoms: _260  and  _262
REMARK  111  A    between atoms: _262  and  _263
REMARK  112  A    between atoms: _265  and  _267
REMARK  113  A    between atoms: _267  and  _268
REMARK  114  A    between atoms: _267  and  _270
REMARK  115  A    between atoms: _273  and  _275
REMARK  116  A    between atoms: _275  and  _276
REMARK  117  A    between atoms: _275  and  _278
REMARK  118  A    between atoms: _278  and  _279
REMARK  119  A    between atoms: _284  and  _285
REMARK                            x       y       z     vdW  Elec       q    Type
REMARK                         _______ _______ _______ _____ _____    ______ ____
ROOT
ATOM      1  CB  HIS A   1      21.630  11.018  23.735  0.00  0.00    +0.072 C 
ENDROOT
BRANCH   1   2
ATOM      2  CG  HIS A   1      22.777  11.897  23.267  0.00  0.00    +0.082 A 
ATOM      3  CD2 HIS A   1      24.132  11.694  23.458  0.00  0.00    +0.115 A 
ATOM      4  NE2 HIS A   1      24.731  12.663  22.813  0.00  0.00    -0.221 NA
ATOM      5  CE1 HIS A   1      23.855  13.451  22.240  0.00  0.00    +0.199 A 
ATOM      6  ND1 HIS A   1      22.673  12.976  22.528  0.00  0.00    -0.227 NA
ENDBRANCH   1   2
BRANCH   1   7
ATOM      7  CA  HIS A   1      21.043  11.217  25.137  0.00  0.00    +0.139 C 
BRANCH   7   8
ATOM      8  N   HIS A   1      20.100  12.325  25.116  0.00  0.00    -0.239 NA
ATOM      9  H   HIS A   1      20.084  12.961  24.293  0.00  0.00    +0.142 HD
ENDBRANCH   7   8
BRANCH   7  10
ATOM     10  C   HIS A   1      22.164  11.355  26.171  0.00  0.00    +0.224 C 
ATOM     11  O   HIS A   1      22.948  10.443  26.421  0.00  0.00    -0.287 OA
ENDBRANCH   7  10
ENDBRANCH   1   7
TORSDOF 4
REMARK  Name = ../refined-set-2016/1tni/1tni_pocket.pdb
REMARK  119 active torsions:
REMARK  status: ('A' for Active; 'I' for Inactive)
REMARK    1  A    between atoms: _1  and  _5
REMARK    2  A    between atoms: _5  and  _6
REMARK    3  A    between atoms: _5  and  _8
REMARK    4  A    between atoms: _8  and  _9
REMARK    5  A    between atoms: _12  and  _14
REMARK    6  A    between atoms: _14  and  _15
REMARK    7  A    between atoms: _14  and  _17
REMARK    8  A    between atoms: _20  and  _22
REMARK    9  A    between atoms: _22  and  _23
REMARK   10  A    between atoms: _22  and  _25
REMARK   11  A    between atoms: _25  and  _26
REMARK   12  A    between atoms: _31  and  _33
REMARK   13  A    between atoms: _33  and  _34
REMARK   14  A    between atoms: _33  and  _36
REMARK   15  A    between atoms: _36  and  _37
REMARK   16  A    between atoms: _42  and  _44
REMARK   17  A    between atoms: _44  and  _45
REMARK   18  A    between atoms: _44  and  _47
REMARK   19  A    between atoms: _47  and  _48
REMARK   20  A    between atoms: _48  and  _49
REMARK   21  A    between atoms: _49  and  _50
REMARK   22  A    between atoms: _50  and  _51
REMARK   23  A    between atoms: _55  and  _57
REMARK   24  A    between atoms: _57  and  _58
REMARK   25  A    between atoms: _57  and  _60
REMARK   26  A    between atoms: _60  and  _61
REMARK   27  A    between atoms: _66  and  _67
REMARK   28  A    between atoms: _69  and  _71
REMARK   29  A    between atoms: _71  and  _72
REMARK   30  A    between atoms: _71  and  _74
REMARK   31  A    between atoms: _74  and  _75
REMARK   32  A    between atoms: _80  and  _81
REMARK   33  A    between atoms: _83  and  _85
REMARK   34  A    between atoms: _85  and  _86
REMARK   35  A    between atoms: _89  and  _91
REMARK   36  A    between atoms: _91  and  _92
REMARK   37  A    between atoms: _91  and  _94
REMARK   38  A    between atoms: _94  and  _95
REMARK   39  A    between atoms: _95  and  _96
REMARK   40  A    between atoms: _96  and  _97
REMARK   41  A    between atoms: _97  and  _98
REMARK   42  A    between atoms: _102  and  _104
REMARK   43  A    between atoms: _104  and  _105
REMARK   44  A    between atoms: _104  and  _107
REMARK   45  A    between atoms: _107  and  _108
REMARK   46  A    between atoms: _111  and  _113
REMARK   47  A    between atoms: _113  and  _114
REMARK   48  A    between atoms: _113  and  _116
REMARK   49  A    between atoms: _116  and  _117
REMARK   50  A    between atoms: _119  and  _121
REMARK   51  A    between atoms: _121  and  _122
REMARK   52  A    between atoms: _121  and  _124
REMARK   53  A    between atoms: _124  and  _125
REMARK   54  A    between atoms: _125  and  _221
REMARK   55  A    between atoms: _126  and  _128
REMARK   56  A    between atoms: _128  and  _129
REMARK   57  A    between atoms: _128  and  _131
REMARK   58  A    between atoms: _131  and  _132
REMARK   59  A    between atoms: _132  and  _133
REMARK   60  A    between atoms: _138  and  _140
REMARK   61  A    between atoms: _140  and  _141
REMARK   62  A    between atoms: _143  and  _145
REMARK   63  A    between atoms: _145  and  _146
REMARK   64  A    between atoms: _145  and  _148
REMARK   65  A    between atoms: _148  and  _149
REMARK   66  A    between atoms: _152  and  _154
REMARK   67  A    between atoms: _154  and  _155
REMARK   68  A    between atoms: _154  and  _157
REMARK   69  A    between atoms: _157  and  _158
REMARK   70  A    between atoms: _160  and  _162
REMARK   71  A    between atoms: _162  and  _163
REMARK   72  A    between atoms: _165  and  _167
REMARK   73  A    between atoms: _167  and  _168
REMARK   74  A    between atoms: _167  and  _170
REMARK   75  A    between atoms: _173  and  _175
REMARK   76  A    between atoms: _175  and  _176
REMARK   77  A    between atoms: _175  and  _178
REMARK   78  A    between atoms: _178  and  _179
REMARK   79  A    between atoms: _181  and  _183
REMARK   80  A    between atoms: _183  and  _184
REMARK   81  A    between atoms: _183  and  _186
REMARK   82  A    between atoms: _186  and  _187
REMARK   83  A    between atoms: _197  and  _199
REMARK   84  A    between atoms: _199  and  _200
REMARK   85  A    between atoms: _202  and  _204
REMARK   86  A    between atoms: _204  and  _205
REMARK   87  A    between atoms: _204  and  _207
REMARK   88  A    between atoms: _207  and  _208
REMARK   89  A    between atoms: _210  and  _212
REMARK   90  A    between atoms: _212  and  _213
REMARK   91  A    between atoms: _215  and  _217
REMARK   92  A    between atoms: _217  and  _218
REMARK   93  A    between atoms: _217  and  _220
REMARK   94  A    between atoms: _220  and  _221
REMARK   95  A    between atoms: _222  and  _224
REMARK   96  A    between atoms: _224  and  _225
REMARK   97  A    between atoms: _228  and  _230
REMARK   98  A    between atoms: _230  and  _231
REMARK   99  A    between atoms: _230  and  _233
REMARK  100  A    between atoms: _233  and  _234
REMARK  101  A    between atoms: _234  and  _235
REMARK  102  A    between atoms: _240  and  _242
REMARK  103  A    between atoms: _242  and  _243
REMARK  104  A    between atoms: _242  and  _245
REMARK  105  A    between atoms: _245  and  _246
REMARK  106  A    between atoms: _246  and  _247
REMARK  107  A    between atoms: _247  and  _248
REMARK  108  A    between atoms: _248  and  _249
REMARK  109  A    between atoms: _254  and  _255
REMARK  110  A    between atoms: _260  and  _262
REMARK  111  A    between atoms: _262  and  _263
REMARK  112  A    between atoms: _265  and  _267
REMARK  113  A    between atoms: _267  and  _268
REMARK  114  A    between atoms: _267  and  _270
REMARK  115  A    between atoms: _273  and  _275
REMARK  116  A    between atoms: _275  and  _276
REMARK  117  A    between atoms: _275  and  _278
REMARK  118  A    between atoms: _278  and  _279
REMARK  119  A    between atoms: _284  and  _285
REMARK                            x       y       z     vdW  Elec       q    Type
REMARK                         _______ _______ _______ _____ _____    ______ ____
ROOT
ATOM      1  CB  ASN A   1      37.203  14.226  20.943  0.00  0.00    +0.110 C 
ENDROOT
BRANCH   1   2
ATOM      2  CG  ASN A   1      38.441  13.510  20.438  0.00  0.00    +0.221 C 
ATOM      3  OD1 ASN A   1      39.601  13.920  20.564  0.00  0.00    -0.275 OA
ATOM      4  ND2 ASN A   1      38.217  12.353  19.857  0.00  0.00    -0.329 N 
ATOM      5 HD21 ASN A   1      37.243  12.005  19.749  0.00  0.00    +0.145 HD
ATOM      6 HD22 ASN A   1      39.014  11.785  19.505  0.00  0.00    +0.145 HD
ENDBRANCH   1   2
BRANCH   1   7
ATOM      7  CA  ASN A   1      37.486  15.594  21.536  0.00  0.00    +0.142 C 
BRANCH   7   8
ATOM      8  N   ASN A   1      36.336  15.957  22.350  0.00  0.00    -0.239 NA
ATOM      9  H   ASN A   1      35.597  15.245  22.520  0.00  0.00    +0.142 HD
ENDBRANCH   7   8
BRANCH   7  10
ATOM     10  C   ASN A   1      37.858  16.607  20.426  0.00  0.00    +0.225 C 
ATOM     11  O   ASN A   1      36.996  17.225  19.763  0.00  0.00    -0.287 OA
ENDBRANCH   7  10
ENDBRANCH   1   7
TORSDOF 4
REMARK  Name = ../refined-set-2016/1tni/1tni_pocket.pdb
REMARK  119 active torsions:
REMARK  status: ('A' for Active; 'I' for Inactive)
REMARK    1  A    between atoms: _1  and  _5
REMARK    2  A    between atoms: _5  and  _6
REMARK    3  A    between atoms: _5  and  _8
REMARK    4  A    between atoms: _8  and  _9
REMARK    5  A    between atoms: _12  and  _14
REMARK    6  A    between atoms: _14  and  _15
REMARK    7  A    between atoms: _14  and  _17
REMARK    8  A    between atoms: _20  and  _22
REMARK    9  A    between atoms: _22  and  _23
REMARK   10  A    between atoms: _22  and  _25
REMARK   11  A    between atoms: _25  and  _26
REMARK   12  A    between atoms: _31  and  _33
REMARK   13  A    between atoms: _33  and  _34
REMARK   14  A    between atoms: _33  and  _36
REMARK   15  A    between atoms: _36  and  _37
REMARK   16  A    between atoms: _42  and  _44
REMARK   17  A    between atoms: _44  and  _45
REMARK   18  A    between atoms: _44  and  _47
REMARK   19  A    between atoms: _47  and  _48
REMARK   20  A    between atoms: _48  and  _49
REMARK   21  A    between atoms: _49  and  _50
REMARK   22  A    between atoms: _50  and  _51
REMARK   23  A    between atoms: _55  and  _57
REMARK   24  A    between atoms: _57  and  _58
REMARK   25  A    between atoms: _57  and  _60
REMARK   26  A    between atoms: _60  and  _61
REMARK   27  A    between atoms: _66  and  _67
REMARK   28  A    between atoms: _69  and  _71
REMARK   29  A    between atoms: _71  and  _72
REMARK   30  A    between atoms: _71  and  _74
REMARK   31  A    between atoms: _74  and  _75
REMARK   32  A    between atoms: _80  and  _81
REMARK   33  A    between atoms: _83  and  _85
REMARK   34  A    between atoms: _85  and  _86
REMARK   35  A    between atoms: _89  and  _91
REMARK   36  A    between atoms: _91  and  _92
REMARK   37  A    between atoms: _91  and  _94
REMARK   38  A    between atoms: _94  and  _95
REMARK   39  A    between atoms: _95  and  _96
REMARK   40  A    between atoms: _96  and  _97
REMARK   41  A    between atoms: _97  and  _98
REMARK   42  A    between atoms: _102  and  _104
REMARK   43  A    between atoms: _104  and  _105
REMARK   44  A    between atoms: _104  and  _107
REMARK   45  A    between atoms: _107  and  _108
REMARK   46  A    between atoms: _111  and  _113
REMARK   47  A    between atoms: _113  and  _114
REMARK   48  A    between atoms: _113  and  _116
REMARK   49  A    between atoms: _116  and  _117
REMARK   50  A    between atoms: _119  and  _121
REMARK   51  A    between atoms: _121  and  _122
REMARK   52  A    between atoms: _121  and  _124
REMARK   53  A    between atoms: _124  and  _125
REMARK   54  A    between atoms: _125  and  _221
REMARK   55  A    between atoms: _126  and  _128
REMARK   56  A    between atoms: _128  and  _129
REMARK   57  A    between atoms: _128  and  _131
REMARK   58  A    between atoms: _131  and  _132
REMARK   59  A    between atoms: _132  and  _133
REMARK   60  A    between atoms: _138  and  _140
REMARK   61  A    between atoms: _140  and  _141
REMARK   62  A    between atoms: _143  and  _145
REMARK   63  A    between atoms: _145  and  _146
REMARK   64  A    between atoms: _145  and  _148
REMARK   65  A    between atoms: _148  and  _149
REMARK   66  A    between atoms: _152  and  _154
REMARK   67  A    between atoms: _154  and  _155
REMARK   68  A    between atoms: _154  and  _157
REMARK   69  A    between atoms: _157  and  _158
REMARK   70  A    between atoms: _160  and  _162
REMARK   71  A    between atoms: _162  and  _163
REMARK   72  A    between atoms: _165  and  _167
REMARK   73  A    between atoms: _167  and  _168
REMARK   74  A    between atoms: _167  and  _170
REMARK   75  A    between atoms: _173  and  _175
REMARK   76  A    between atoms: _175  and  _176
REMARK   77  A    between atoms: _175  and  _178
REMARK   78  A    between atoms: _178  and  _179
REMARK   79  A    between atoms: _181  and  _183
REMARK   80  A    between atoms: _183  and  _184
REMARK   81  A    between atoms: _183  and  _186
REMARK   82  A    between atoms: _186  and  _187
REMARK   83  A    between atoms: _197  and  _199
REMARK   84  A    between atoms: _199  and  _200
REMARK   85  A    between atoms: _202  and  _204
REMARK   86  A    between atoms: _204  and  _205
REMARK   87  A    between atoms: _204  and  _207
REMARK   88  A    between atoms: _207  and  _208
REMARK   89  A    between atoms: _210  and  _212
REMARK   90  A    between atoms: _212  and  _213
REMARK   91  A    between atoms: _215  and  _217
REMARK   92  A    between atoms: _217  and  _218
REMARK   93  A    between atoms: _217  and  _220
REMARK   94  A    between atoms: _220  and  _221
REMARK   95  A    between atoms: _222  and  _224
REMARK   96  A    between atoms: _224  and  _225
REMARK   97  A    between atoms: _228  and  _230
REMARK   98  A    between atoms: _230  and  _231
REMARK   99  A    between atoms: _230  and  _233
REMARK  100  A    between atoms: _233  and  _234
REMARK  101  A    between atoms: _234  and  _235
REMARK  102  A    between atoms: _240  and  _242
REMARK  103  A    between atoms: _242  and  _243
REMARK  104  A    between atoms: _242  and  _245
REMARK  105  A    between atoms: _245  and  _246
REMARK  106  A    between atoms: _246  and  _247
REMARK  107  A    between atoms: _247  and  _248
REMARK  108  A    between atoms: _248  and  _249
REMARK  109  A    between atoms: _254  and  _255
REMARK  110  A    between atoms: _260  and  _262
REMARK  111  A    between atoms: _262  and  _263
REMARK  112  A    between atoms: _265  and  _267
REMARK  113  A    between atoms: _267  and  _268
REMARK  114  A    between atoms: _267  and  _270
REMARK  115  A    between atoms: _273  and  _275
REMARK  116  A    between atoms: _275  and  _276
REMARK  117  A    between atoms: _275  and  _278
REMARK  118  A    between atoms: _278  and  _279
REMARK  119  A    between atoms: _284  and  _285
REMARK                            x       y       z     vdW  Elec       q    Type
REMARK                         _______ _______ _______ _____ _____    ______ ____
ROOT
ATOM      1  CG  LYS A   1      43.220  14.677  17.185  0.00  0.00    -0.000 C 
ENDROOT
BRANCH   1   2
ATOM      2  CB  LYS A   1      41.839  14.102  17.413  0.00  0.00    +0.025 C 
BRANCH   2   3
ATOM      3  CA  LYS A   1      40.787  15.061  16.933  0.00  0.00    +0.133 C 
BRANCH   3   4
ATOM      4  N   LYS A   1      40.277  15.799  18.066  0.00  0.00    -0.239 NA
ATOM      5  H   LYS A   1      39.874  15.273  18.868  0.00  0.00    +0.142 HD
ENDBRANCH   3   4
BRANCH   3   6
ATOM      6  C   LYS A   1      39.753  14.283  16.120  0.00  0.00    +0.224 C 
ATOM      7  O   LYS A   1      38.896  13.582  16.651  0.00  0.00    -0.287 OA
ENDBRANCH   3   6
ENDBRANCH   2   3
ENDBRANCH   1   2
BRANCH   1   8
ATOM      8  CD  LYS A   1      43.840  13.944  15.956  0.00  0.00    -0.024 C 
BRANCH   8   9
ATOM      9  CE  LYS A   1      43.070  14.194  14.634  0.00  0.00    -0.086 C 
BRANCH   9  10
ATOM     10  NZ  LYS A   1      43.322  13.312  13.525  0.00  0.00    +0.380 N 
ATOM     11  HZ1 LYS A   1      43.082  12.337  13.797  0.00  0.00    -0.089 HD
ATOM     12  HZ2 LYS A   1      44.328  13.362  13.265  0.00  0.00    -0.089 HD
ATOM     13  HZ3 LYS A   1      42.738  13.601  12.714  0.00  0.00    -0.089 HD
ENDBRANCH   9  10
ENDBRANCH   8   9
ENDBRANCH   1   8
TORSDOF 7
REMARK  Name = ../refined-set-2016/1tni/1tni_pocket.pdb
REMARK  119 active torsions:
REMARK  status: ('A' for Active; 'I' for Inactive)
REMARK    1  A    between atoms: _1  and  _5
REMARK    2  A    between atoms: _5  and  _6
REMARK    3  A    between atoms: _5  and  _8
REMARK    4  A    between atoms: _8  and  _9
REMARK    5  A    between atoms: _12  and  _14
REMARK    6  A    between atoms: _14  and  _15
REMARK    7  A    between atoms: _14  and  _17
REMARK    8  A    between atoms: _20  and  _22
REMARK    9  A    between atoms: _22  and  _23
REMARK   10  A    between atoms: _22  and  _25
REMARK   11  A    between atoms: _25  and  _26
REMARK   12  A    between atoms: _31  and  _33
REMARK   13  A    between atoms: _33  and  _34
REMARK   14  A    between atoms: _33  and  _36
REMARK   15  A    between atoms: _36  and  _37
REMARK   16  A    between atoms: _42  and  _44
REMARK   17  A    between atoms: _44  and  _45
REMARK   18  A    between atoms: _44  and  _47
REMARK   19  A    between atoms: _47  and  _48
REMARK   20  A    between atoms: _48  and  _49
REMARK   21  A    between atoms: _49  and  _50
REMARK   22  A    between atoms: _50  and  _51
REMARK   23  A    between atoms: _55  and  _57
REMARK   24  A    between atoms: _57  and  _58
REMARK   25  A    between atoms: _57  and  _60
REMARK   26  A    between atoms: _60  and  _61
REMARK   27  A    between atoms: _66  and  _67
REMARK   28  A    between atoms: _69  and  _71
REMARK   29  A    between atoms: _71  and  _72
REMARK   30  A    between atoms: _71  and  _74
REMARK   31  A    between atoms: _74  and  _75
REMARK   32  A    between atoms: _80  and  _81
REMARK   33  A    between atoms: _83  and  _85
REMARK   34  A    between atoms: _85  and  _86
REMARK   35  A    between atoms: _89  and  _91
REMARK   36  A    between atoms: _91  and  _92
REMARK   37  A    between atoms: _91  and  _94
REMARK   38  A    between atoms: _94  and  _95
REMARK   39  A    between atoms: _95  and  _96
REMARK   40  A    between atoms: _96  and  _97
REMARK   41  A    between atoms: _97  and  _98
REMARK   42  A    between atoms: _102  and  _104
REMARK   43  A    between atoms: _104  and  _105
REMARK   44  A    between atoms: _104  and  _107
REMARK   45  A    between atoms: _107  and  _108
REMARK   46  A    between atoms: _111  and  _113
REMARK   47  A    between atoms: _113  and  _114
REMARK   48  A    between atoms: _113  and  _116
REMARK   49  A    between atoms: _116  and  _117
REMARK   50  A    between atoms: _119  and  _121
REMARK   51  A    between atoms: _121  and  _122
REMARK   52  A    between atoms: _121  and  _124
REMARK   53  A    between atoms: _124  and  _125
REMARK   54  A    between atoms: _125  and  _221
REMARK   55  A    between atoms: _126  and  _128
REMARK   56  A    between atoms: _128  and  _129
REMARK   57  A    between atoms: _128  and  _131
REMARK   58  A    between atoms: _131  and  _132
REMARK   59  A    between atoms: _132  and  _133
REMARK   60  A    between atoms: _138  and  _140
REMARK   61  A    between atoms: _140  and  _141
REMARK   62  A    between atoms: _143  and  _145
REMARK   63  A    between atoms: _145  and  _146
REMARK   64  A    between atoms: _145  and  _148
REMARK   65  A    between atoms: _148  and  _149
REMARK   66  A    between atoms: _152  and  _154
REMARK   67  A    between atoms: _154  and  _155
REMARK   68  A    between atoms: _154  and  _157
REMARK   69  A    between atoms: _157  and  _158
REMARK   70  A    between atoms: _160  and  _162
REMARK   71  A    between atoms: _162  and  _163
REMARK   72  A    between atoms: _165  and  _167
REMARK   73  A    between atoms: _167  and  _168
REMARK   74  A    between atoms: _167  and  _170
REMARK   75  A    between atoms: _173  and  _175
REMARK   76  A    between atoms: _175  and  _176
REMARK   77  A    between atoms: _175  and  _178
REMARK   78  A    between atoms: _178  and  _179
REMARK   79  A    between atoms: _181  and  _183
REMARK   80  A    between atoms: _183  and  _184
REMARK   81  A    between atoms: _183  and  _186
REMARK   82  A    between atoms: _186  and  _187
REMARK   83  A    between atoms: _197  and  _199
REMARK   84  A    between atoms: _199  and  _200
REMARK   85  A    between atoms: _202  and  _204
REMARK   86  A    between atoms: _204  and  _205
REMARK   87  A    between atoms: _204  and  _207
REMARK   88  A    between atoms: _207  and  _208
REMARK   89  A    between atoms: _210  and  _212
REMARK   90  A    between atoms: _212  and  _213
REMARK   91  A    between atoms: _215  and  _217
REMARK   92  A    between atoms: _217  and  _218
REMARK   93  A    between atoms: _217  and  _220
REMARK   94  A    between atoms: _220  and  _221
REMARK   95  A    between atoms: _222  and  _224
REMARK   96  A    between atoms: _224  and  _225
REMARK   97  A    between atoms: _228  and  _230
REMARK   98  A    between atoms: _230  and  _231
REMARK   99  A    between atoms: _230  and  _233
REMARK  100  A    between atoms: _233  and  _234
REMARK  101  A    between atoms: _234  and  _235
REMARK  102  A    between atoms: _240  and  _242
REMARK  103  A    between atoms: _242  and  _243
REMARK  104  A    between atoms: _242  and  _245
REMARK  105  A    between atoms: _245  and  _246
REMARK  106  A    between atoms: _246  and  _247
REMARK  107  A    between atoms: _247  and  _248
REMARK  108  A    between atoms: _248  and  _249
REMARK  109  A    between atoms: _254  and  _255
REMARK  110  A    between atoms: _260  and  _262
REMARK  111  A    between atoms: _262  and  _263
REMARK  112  A    between atoms: _265  and  _267
REMARK  113  A    between atoms: _267  and  _268
REMARK  114  A    between atoms: _267  and  _270
REMARK  115  A    between atoms: _273  and  _275
REMARK  116  A    between atoms: _275  and  _276
REMARK  117  A    between atoms: _275  and  _278
REMARK  118  A    between atoms: _278  and  _279
REMARK  119  A    between atoms: _284  and  _285
REMARK                            x       y       z     vdW  Elec       q    Type
REMARK                         _______ _______ _______ _____ _____    ______ ____
ROOT
ATOM      1  CG  TYR A   1      38.954  14.097  25.552  0.00  0.00    -0.020 A 
ATOM      2  CD2 TYR A   1      37.607  14.408  25.441  0.00  0.00    -0.001 A 
ATOM      3  CE2 TYR A   1      36.762  13.540  24.781  0.00  0.00    +0.036 A 
ATOM      4  CZ  TYR A   1      37.307  12.385  24.246  0.00  0.00    +0.134 A 
ATOM      5  CE1 TYR A   1      38.640  12.067  24.345  0.00  0.00    +0.036 A 
ATOM      6  CD1 TYR A   1      39.471  12.935  25.009  0.00  0.00    -0.001 A 
ENDROOT
BRANCH   4   7
ATOM      7  OH  TYR A   1      36.487  11.501  23.604  0.00  0.00    -0.506 OA
ATOM      8  HH  TYR A   1      35.793  11.180  24.233  0.00  0.00    +0.292 HD
ENDBRANCH   4   7
BRANCH   1   9
ATOM      9  CB  TYR A   1      39.866  15.042  26.289  0.00  0.00    +0.051 C 
BRANCH   9  10
ATOM     10  CA  TYR A   1      40.516  15.916  25.260  0.00  0.00    +0.137 C 
BRANCH  10  11
ATOM     11  N   TYR A   1      41.474  15.107  24.574  0.00  0.00    -0.239 NA
ATOM     12  H   TYR A   1      42.019  14.396  25.102  0.00  0.00    +0.142 HD
ENDBRANCH  10  11
BRANCH  10  13
ATOM     13  C   TYR A   1      41.158  17.161  25.863  0.00  0.00    +0.224 C 
ATOM     14  O   TYR A   1      42.159  17.078  26.574  0.00  0.00    -0.287 OA
ENDBRANCH  10  13
ENDBRANCH   9  10
ENDBRANCH   1   9
TORSDOF 5
REMARK  Name = ../refined-set-2016/1tni/1tni_pocket.pdb
REMARK  119 active torsions:
REMARK  status: ('A' for Active; 'I' for Inactive)
REMARK    1  A    between atoms: _1  and  _5
REMARK    2  A    between atoms: _5  and  _6
REMARK    3  A    between atoms: _5  and  _8
REMARK    4  A    between atoms: _8  and  _9
REMARK    5  A    between atoms: _12  and  _14
REMARK    6  A    between atoms: _14  and  _15
REMARK    7  A    between atoms: _14  and  _17
REMARK    8  A    between atoms: _20  and  _22
REMARK    9  A    between atoms: _22  and  _23
REMARK   10  A    between atoms: _22  and  _25
REMARK   11  A    between atoms: _25  and  _26
REMARK   12  A    between atoms: _31  and  _33
REMARK   13  A    between atoms: _33  and  _34
REMARK   14  A    between atoms: _33  and  _36
REMARK   15  A    between atoms: _36  and  _37
REMARK   16  A    between atoms: _42  and  _44
REMARK   17  A    between atoms: _44  and  _45
REMARK   18  A    between atoms: _44  and  _47
REMARK   19  A    between atoms: _47  and  _48
REMARK   20  A    between atoms: _48  and  _49
REMARK   21  A    between atoms: _49  and  _50
REMARK   22  A    between atoms: _50  and  _51
REMARK   23  A    between atoms: _55  and  _57
REMARK   24  A    between atoms: _57  and  _58
REMARK   25  A    between atoms: _57  and  _60
REMARK   26  A    between atoms: _60  and  _61
REMARK   27  A    between atoms: _66  and  _67
REMARK   28  A    between atoms: _69  and  _71
REMARK   29  A    between atoms: _71  and  _72
REMARK   30  A    between atoms: _71  and  _74
REMARK   31  A    between atoms: _74  and  _75
REMARK   32  A    between atoms: _80  and  _81
REMARK   33  A    between atoms: _83  and  _85
REMARK   34  A    between atoms: _85  and  _86
REMARK   35  A    between atoms: _89  and  _91
REMARK   36  A    between atoms: _91  and  _92
REMARK   37  A    between atoms: _91  and  _94
REMARK   38  A    between atoms: _94  and  _95
REMARK   39  A    between atoms: _95  and  _96
REMARK   40  A    between atoms: _96  and  _97
REMARK   41  A    between atoms: _97  and  _98
REMARK   42  A    between atoms: _102  and  _104
REMARK   43  A    between atoms: _104  and  _105
REMARK   44  A    between atoms: _104  and  _107
REMARK   45  A    between atoms: _107  and  _108
REMARK   46  A    between atoms: _111  and  _113
REMARK   47  A    between atoms: _113  and  _114
REMARK   48  A    between atoms: _113  and  _116
REMARK   49  A    between atoms: _116  and  _117
REMARK   50  A    between atoms: _119  and  _121
REMARK   51  A    between atoms: _121  and  _122
REMARK   52  A    between atoms: _121  and  _124
REMARK   53  A    between atoms: _124  and  _125
REMARK   54  A    between atoms: _125  and  _221
REMARK   55  A    between atoms: _126  and  _128
REMARK   56  A    between atoms: _128  and  _129
REMARK   57  A    between atoms: _128  and  _131
REMARK   58  A    between atoms: _131  and  _132
REMARK   59  A    between atoms: _132  and  _133
REMARK   60  A    between atoms: _138  and  _140
REMARK   61  A    between atoms: _140  and  _141
REMARK   62  A    between atoms: _143  and  _145
REMARK   63  A    between atoms: _145  and  _146
REMARK   64  A    between atoms: _145  and  _148
REMARK   65  A    between atoms: _148  and  _149
REMARK   66  A    between atoms: _152  and  _154
REMARK   67  A    between atoms: _154  and  _155
REMARK   68  A    between atoms: _154  and  _157
REMARK   69  A    between atoms: _157  and  _158
REMARK   70  A    between atoms: _160  and  _162
REMARK   71  A    between atoms: _162  and  _163
REMARK   72  A    between atoms: _165  and  _167
REMARK   73  A    between atoms: _167  and  _168
REMARK   74  A    between atoms: _167  and  _170
REMARK   75  A    between atoms: _173  and  _175
REMARK   76  A    between atoms: _175  and  _176
REMARK   77  A    between atoms: _175  and  _178
REMARK   78  A    between atoms: _178  and  _179
REMARK   79  A    between atoms: _181  and  _183
REMARK   80  A    between atoms: _183  and  _184
REMARK   81  A    between atoms: _183  and  _186
REMARK   82  A    between atoms: _186  and  _187
REMARK   83  A    between atoms: _197  and  _199
REMARK   84  A    between atoms: _199  and  _200
REMARK   85  A    between atoms: _202  and  _204
REMARK   86  A    between atoms: _204  and  _205
REMARK   87  A    between atoms: _204  and  _207
REMARK   88  A    between atoms: _207  and  _208
REMARK   89  A    between atoms: _210  and  _212
REMARK   90  A    between atoms: _212  and  _213
REMARK   91  A    between atoms: _215  and  _217
REMARK   92  A    between atoms: _217  and  _218
REMARK   93  A    between atoms: _217  and  _220
REMARK   94  A    between atoms: _220  and  _221
REMARK   95  A    between atoms: _222  and  _224
REMARK   96  A    between atoms: _224  and  _225
REMARK   97  A    between atoms: _228  and  _230
REMARK   98  A    between atoms: _230  and  _231
REMARK   99  A    between atoms: _230  and  _233
REMARK  100  A    between atoms: _233  and  _234
REMARK  101  A    between atoms: _234  and  _235
REMARK  102  A    between atoms: _240  and  _242
REMARK  103  A    between atoms: _242  and  _243
REMARK  104  A    between atoms: _242  and  _245
REMARK  105  A    between atoms: _245  and  _246
REMARK  106  A    between atoms: _246  and  _247
REMARK  107  A    between atoms: _247  and  _248
REMARK  108  A    between atoms: _248  and  _249
REMARK  109  A    between atoms: _254  and  _255
REMARK  110  A    between atoms: _260  and  _262
REMARK  111  A    between atoms: _262  and  _263
REMARK  112  A    between atoms: _265  and  _267
REMARK  113  A    between atoms: _267  and  _268
REMARK  114  A    between atoms: _267  and  _270
REMARK  115  A    between atoms: _273  and  _275
REMARK  116  A    between atoms: _275  and  _276
REMARK  117  A    between atoms: _275  and  _278
REMARK  118  A    between atoms: _278  and  _279
REMARK  119  A    between atoms: _284  and  _285
REMARK                            x       y       z     vdW  Elec       q    Type
REMARK                         _______ _______ _______ _____ _____    ______ ____
ROOT
ATOM      1  CG  TYR A   1      23.499  12.984   7.967  0.00  0.00    -0.020 A 
ATOM      2  CD2 TYR A   1      24.305  11.963   8.435  0.00  0.00    -0.001 A 
ATOM      3  CE2 TYR A   1      25.484  12.240   9.066  0.00  0.00    +0.036 A 
ATOM      4  CZ  TYR A   1      25.857  13.553   9.226  0.00  0.00    +0.134 A 
ATOM      5  CE1 TYR A   1      25.071  14.601   8.752  0.00  0.00    +0.036 A 
ATOM      6  CD1 TYR A   1      23.877  14.324   8.117  0.00  0.00    -0.001 A 
ENDROOT
BRANCH   4   7
ATOM      7  OH  TYR A   1      27.034  13.782   9.926  0.00  0.00    -0.506 OA
ATOM      8  HH  TYR A   1      26.834  14.301  10.745  0.00  0.00    +0.292 HD
ENDBRANCH   4   7
BRANCH   1   9
ATOM      9  CB  TYR A   1      22.175  12.602   7.313  0.00  0.00    +0.051 C 
BRANCH   9  10
ATOM     10  CA  TYR A   1      22.311  12.099   5.871  0.00  0.00    +0.137 C 
BRANCH  10  11
ATOM     11  N   TYR A   1      22.852  13.156   5.036  0.00  0.00    -0.239 NA
ATOM     12  H   TYR A   1      22.250  13.983   4.848  0.00  0.00    +0.142 HD
ENDBRANCH  10  11
BRANCH  10  13
ATOM     13  C   TYR A   1      20.950  11.643   5.355  0.00  0.00    +0.224 C 
ATOM     14  O   TYR A   1      19.897  11.902   5.973  0.00  0.00    -0.287 OA
ENDBRANCH  10  13
ENDBRANCH   9  10
ENDBRANCH   1   9
TORSDOF 5
REMARK  Name = ../refined-set-2016/1tni/1tni_pocket.pdb
REMARK  119 active torsions:
REMARK  status: ('A' for Active; 'I' for Inactive)
REMARK    1  A    between atoms: _1  and  _5
REMARK    2  A    between atoms: _5  and  _6
REMARK    3  A    between atoms: _5  and  _8
REMARK    4  A    between atoms: _8  and  _9
REMARK    5  A    between atoms: _12  and  _14
REMARK    6  A    between atoms: _14  and  _15
REMARK    7  A    between atoms: _14  and  _17
REMARK    8  A    between atoms: _20  and  _22
REMARK    9  A    between atoms: _22  and  _23
REMARK   10  A    between atoms: _22  and  _25
REMARK   11  A    between atoms: _25  and  _26
REMARK   12  A    between atoms: _31  and  _33
REMARK   13  A    between atoms: _33  and  _34
REMARK   14  A    between atoms: _33  and  _36
REMARK   15  A    between atoms: _36  and  _37
REMARK   16  A    between atoms: _42  and  _44
REMARK   17  A    between atoms: _44  and  _45
REMARK   18  A    between atoms: _44  and  _47
REMARK   19  A    between atoms: _47  and  _48
REMARK   20  A    between atoms: _48  and  _49
REMARK   21  A    between atoms: _49  and  _50
REMARK   22  A    between atoms: _50  and  _51
REMARK   23  A    between atoms: _55  and  _57
REMARK   24  A    between atoms: _57  and  _58
REMARK   25  A    between atoms: _57  and  _60
REMARK   26  A    between atoms: _60  and  _61
REMARK   27  A    between atoms: _66  and  _67
REMARK   28  A    between atoms: _69  and  _71
REMARK   29  A    between atoms: _71  and  _72
REMARK   30  A    between atoms: _71  and  _74
REMARK   31  A    between atoms: _74  and  _75
REMARK   32  A    between atoms: _80  and  _81
REMARK   33  A    between atoms: _83  and  _85
REMARK   34  A    between atoms: _85  and  _86
REMARK   35  A    between atoms: _89  and  _91
REMARK   36  A    between atoms: _91  and  _92
REMARK   37  A    between atoms: _91  and  _94
REMARK   38  A    between atoms: _94  and  _95
REMARK   39  A    between atoms: _95  and  _96
REMARK   40  A    between atoms: _96  and  _97
REMARK   41  A    between atoms: _97  and  _98
REMARK   42  A    between atoms: _102  and  _104
REMARK   43  A    between atoms: _104  and  _105
REMARK   44  A    between atoms: _104  and  _107
REMARK   45  A    between atoms: _107  and  _108
REMARK   46  A    between atoms: _111  and  _113
REMARK   47  A    between atoms: _113  and  _114
REMARK   48  A    between atoms: _113  and  _116
REMARK   49  A    between atoms: _116  and  _117
REMARK   50  A    between atoms: _119  and  _121
REMARK   51  A    between atoms: _121  and  _122
REMARK   52  A    between atoms: _121  and  _124
REMARK   53  A    between atoms: _124  and  _125
REMARK   54  A    between atoms: _125  and  _221
REMARK   55  A    between atoms: _126  and  _128
REMARK   56  A    between atoms: _128  and  _129
REMARK   57  A    between atoms: _128  and  _131
REMARK   58  A    between atoms: _131  and  _132
REMARK   59  A    between atoms: _132  and  _133
REMARK   60  A    between atoms: _138  and  _140
REMARK   61  A    between atoms: _140  and  _141
REMARK   62  A    between atoms: _143  and  _145
REMARK   63  A    between atoms: _145  and  _146
REMARK   64  A    between atoms: _145  and  _148
REMARK   65  A    between atoms: _148  and  _149
REMARK   66  A    between atoms: _152  and  _154
REMARK   67  A    between atoms: _154  and  _155
REMARK   68  A    between atoms: _154  and  _157
REMARK   69  A    between atoms: _157  and  _158
REMARK   70  A    between atoms: _160  and  _162
REMARK   71  A    between atoms: _162  and  _163
REMARK   72  A    between atoms: _165  and  _167
REMARK   73  A    between atoms: _167  and  _168
REMARK   74  A    between atoms: _167  and  _170
REMARK   75  A    between atoms: _173  and  _175
REMARK   76  A    between atoms: _175  and  _176
REMARK   77  A    between atoms: _175  and  _178
REMARK   78  A    between atoms: _178  and  _179
REMARK   79  A    between atoms: _181  and  _183
REMARK   80  A    between atoms: _183  and  _184
REMARK   81  A    between atoms: _183  and  _186
REMARK   82  A    between atoms: _186  and  _187
REMARK   83  A    between atoms: _197  and  _199
REMARK   84  A    between atoms: _199  and  _200
REMARK   85  A    between atoms: _202  and  _204
REMARK   86  A    between atoms: _204  and  _205
REMARK   87  A    between atoms: _204  and  _207
REMARK   88  A    between atoms: _207  and  _208
REMARK   89  A    between atoms: _210  and  _212
REMARK   90  A    between atoms: _212  and  _213
REMARK   91  A    between atoms: _215  and  _217
REMARK   92  A    between atoms: _217  and  _218
REMARK   93  A    between atoms: _217  and  _220
REMARK   94  A    between atoms: _220  and  _221
REMARK   95  A    between atoms: _222  and  _224
REMARK   96  A    between atoms: _224  and  _225
REMARK   97  A    between atoms: _228  and  _230
REMARK   98  A    between atoms: _230  and  _231
REMARK   99  A    between atoms: _230  and  _233
REMARK  100  A    between atoms: _233  and  _234
REMARK  101  A    between atoms: _234  and  _235
REMARK  102  A    between atoms: _240  and  _242
REMARK  103  A    between atoms: _242  and  _243
REMARK  104  A    between atoms: _242  and  _245
REMARK  105  A    between atoms: _245  and  _246
REMARK  106  A    between atoms: _246  and  _247
REMARK  107  A    between atoms: _247  and  _248
REMARK  108  A    between atoms: _248  and  _249
REMARK  109  A    between atoms: _254  and  _255
REMARK  110  A    between atoms: _260  and  _262
REMARK  111  A    between atoms: _262  and  _263
REMARK  112  A    between atoms: _265  and  _267
REMARK  113  A    between atoms: _267  and  _268
REMARK  114  A    between atoms: _267  and  _270
REMARK  115  A    between atoms: _273  and  _275
REMARK  116  A    between atoms: _275  and  _276
REMARK  117  A    between atoms: _275  and  _278
REMARK  118  A    between atoms: _278  and  _279
REMARK  119  A    between atoms: _284  and  _285
REMARK                            x       y       z     vdW  Elec       q    Type
REMARK                         _______ _______ _______ _____ _____    ______ ____
ROOT
ATOM      1  CA  ALA A   1      25.699  23.158  10.844  0.00  0.00    +0.133 C 
ATOM      2  CB  ALA A   1      25.469  23.892  12.174  0.00  0.00    +0.027 C 
ENDROOT
BRANCH   1   3
ATOM      3  N   ALA A   1      24.894  21.969  10.774  0.00  0.00    -0.239 NA
ATOM      4  H   ALA A   1      25.279  21.069  11.125  0.00  0.00    +0.142 HD
ENDBRANCH   1   3
BRANCH   1   5
ATOM      5  C   ALA A   1      27.138  22.705  10.743  0.00  0.00    +0.224 C 
ATOM      6  O   ALA A   1      27.521  21.627  11.222  0.00  0.00    -0.287 OA
ENDBRANCH   1   5
TORSDOF 2
REMARK  Name = ../refined-set-2016/1tni/1tni_pocket.pdb
REMARK  119 active torsions:
REMARK  status: ('A' for Active; 'I' for Inactive)
REMARK    1  A    between atoms: _1  and  _5
REMARK    2  A    between atoms: _5  and  _6
REMARK    3  A    between atoms: _5  and  _8
REMARK    4  A    between atoms: _8  and  _9
REMARK    5  A    between atoms: _12  and  _14
REMARK    6  A    between atoms: _14  and  _15
REMARK    7  A    between atoms: _14  and  _17
REMARK    8  A    between atoms: _20  and  _22
REMARK    9  A    between atoms: _22  and  _23
REMARK   10  A    between atoms: _22  and  _25
REMARK   11  A    between atoms: _25  and  _26
REMARK   12  A    between atoms: _31  and  _33
REMARK   13  A    between atoms: _33  and  _34
REMARK   14  A    between atoms: _33  and  _36
REMARK   15  A    between atoms: _36  and  _37
REMARK   16  A    between atoms: _42  and  _44
REMARK   17  A    between atoms: _44  and  _45
REMARK   18  A    between atoms: _44  and  _47
REMARK   19  A    between atoms: _47  and  _48
REMARK   20  A    between atoms: _48  and  _49
REMARK   21  A    between atoms: _49  and  _50
REMARK   22  A    between atoms: _50  and  _51
REMARK   23  A    between atoms: _55  and  _57
REMARK   24  A    between atoms: _57  and  _58
REMARK   25  A    between atoms: _57  and  _60
REMARK   26  A    between atoms: _60  and  _61
REMARK   27  A    between atoms: _66  and  _67
REMARK   28  A    between atoms: _69  and  _71
REMARK   29  A    between atoms: _71  and  _72
REMARK   30  A    between atoms: _71  and  _74
REMARK   31  A    between atoms: _74  and  _75
REMARK   32  A    between atoms: _80  and  _81
REMARK   33  A    between atoms: _83  and  _85
REMARK   34  A    between atoms: _85  and  _86
REMARK   35  A    between atoms: _89  and  _91
REMARK   36  A    between atoms: _91  and  _92
REMARK   37  A    between atoms: _91  and  _94
REMARK   38  A    between atoms: _94  and  _95
REMARK   39  A    between atoms: _95  and  _96
REMARK   40  A    between atoms: _96  and  _97
REMARK   41  A    between atoms: _97  and  _98
REMARK   42  A    between atoms: _102  and  _104
REMARK   43  A    between atoms: _104  and  _105
REMARK   44  A    between atoms: _104  and  _107
REMARK   45  A    between atoms: _107  and  _108
REMARK   46  A    between atoms: _111  and  _113
REMARK   47  A    between atoms: _113  and  _114
REMARK   48  A    between atoms: _113  and  _116
REMARK   49  A    between atoms: _116  and  _117
REMARK   50  A    between atoms: _119  and  _121
REMARK   51  A    between atoms: _121  and  _122
REMARK   52  A    between atoms: _121  and  _124
REMARK   53  A    between atoms: _124  and  _125
REMARK   54  A    between atoms: _125  and  _221
REMARK   55  A    between atoms: _126  and  _128
REMARK   56  A    between atoms: _128  and  _129
REMARK   57  A    between atoms: _128  and  _131
REMARK   58  A    between atoms: _131  and  _132
REMARK   59  A    between atoms: _132  and  _133
REMARK   60  A    between atoms: _138  and  _140
REMARK   61  A    between atoms: _140  and  _141
REMARK   62  A    between atoms: _143  and  _145
REMARK   63  A    between atoms: _145  and  _146
REMARK   64  A    between atoms: _145  and  _148
REMARK   65  A    between atoms: _148  and  _149
REMARK   66  A    between atoms: _152  and  _154
REMARK   67  A    between atoms: _154  and  _155
REMARK   68  A    between atoms: _154  and  _157
REMARK   69  A    between atoms: _157  and  _158
REMARK   70  A    between atoms: _160  and  _162
REMARK   71  A    between atoms: _162  and  _163
REMARK   72  A    between atoms: _165  and  _167
REMARK   73  A    between atoms: _167  and  _168
REMARK   74  A    between atoms: _167  and  _170
REMARK   75  A    between atoms: _173  and  _175
REMARK   76  A    between atoms: _175  and  _176
REMARK   77  A    between atoms: _175  and  _178
REMARK   78  A    between atoms: _178  and  _179
REMARK   79  A    between atoms: _181  and  _183
REMARK   80  A    between atoms: _183  and  _184
REMARK   81  A    between atoms: _183  and  _186
REMARK   82  A    between atoms: _186  and  _187
REMARK   83  A    between atoms: _197  and  _199
REMARK   84  A    between atoms: _199  and  _200
REMARK   85  A    between atoms: _202  and  _204
REMARK   86  A    between atoms: _204  and  _205
REMARK   87  A    between atoms: _204  and  _207
REMARK   88  A    between atoms: _207  and  _208
REMARK   89  A    between atoms: _210  and  _212
REMARK   90  A    between atoms: _212  and  _213
REMARK   91  A    between atoms: _215  and  _217
REMARK   92  A    between atoms: _217  and  _218
REMARK   93  A    between atoms: _217  and  _220
REMARK   94  A    between atoms: _220  and  _221
REMARK   95  A    between atoms: _222  and  _224
REMARK   96  A    between atoms: _224  and  _225
REMARK   97  A    between atoms: _228  and  _230
REMARK   98  A    between atoms: _230  and  _231
REMARK   99  A    between atoms: _230  and  _233
REMARK  100  A    between atoms: _233  and  _234
REMARK  101  A    between atoms: _234  and  _235
REMARK  102  A    between atoms: _240  and  _242
REMARK  103  A    between atoms: _242  and  _243
REMARK  104  A    between atoms: _242  and  _245
REMARK  105  A    between atoms: _245  and  _246
REMARK  106  A    between atoms: _246  and  _247
REMARK  107  A    between atoms: _247  and  _248
REMARK  108  A    between atoms: _248  and  _249
REMARK  109  A    between atoms: _254  and  _255
REMARK  110  A    between atoms: _260  and  _262
REMARK  111  A    between atoms: _262  and  _263
REMARK  112  A    between atoms: _265  and  _267
REMARK  113  A    between atoms: _267  and  _268
REMARK  114  A    between atoms: _267  and  _270
REMARK  115  A    between atoms: _273  and  _275
REMARK  116  A    between atoms: _275  and  _276
REMARK  117  A    between atoms: _275  and  _278
REMARK  118  A    between atoms: _278  and  _279
REMARK  119  A    between atoms: _284  and  _285
REMARK                            x       y       z     vdW  Elec       q    Type
REMARK                         _______ _______ _______ _____ _____    ______ ____
ROOT
ATOM      1  SG  GLY A   4      34.997  14.246  17.810  0.00  0.00    -0.080 S 
ENDROOT
BRANCH   1   2
ATOM      2  CB  GLY A   4      34.339  15.836  18.352  0.00  0.00    +0.098 C 
BRANCH   2   3
ATOM      3  CA  GLY A   4      32.840  15.841  18.517  0.00  0.00    +0.160 C 
BRANCH   3   4
ATOM      4  C   GLY A   4      32.449  15.208  19.847  0.00  0.00    +0.242 C 
ATOM      5  O   GLY A   4      31.735  15.859  20.608  0.00  0.00    -0.273 OA
ATOM      6  N   SER A   5      32.859  14.009  20.245  0.00  0.00    -0.297 N 
ATOM      7  H   SER A   5      33.539  13.481  19.662  0.00  0.00    +0.150 HD
BRANCH   6   8
ATOM      8  CA  SER A   5      32.372  13.425  21.481  0.00  0.00    +0.149 C 
BRANCH   8   9
ATOM      9  C   SER A   5      32.874  14.134  22.734  0.00  0.00    +0.241 C 
ATOM     10  N   GLY A   6      31.938  14.298  23.653  0.00  0.00    -0.295 N 
ATOM     11  H   GLY A   6      31.013  13.844  23.508  0.00  0.00    +0.150 HD
ATOM     12  O   SER A   5      34.019  14.552  22.851  0.00  0.00    -0.273 OA
BRANCH  10  13
ATOM     13  CA  GLY A   6      32.144  15.078  24.846  0.00  0.00    +0.176 C 
BRANCH  13  14
ATOM     14  C   GLY A   6      31.511  16.467  24.683  0.00  0.00    +0.243 C 
ATOM     15  O   GLY A   6      31.328  17.187  25.677  0.00  0.00    -0.273 OA
ATOM     16  N   CYS A   7      31.254  16.903  23.432  0.00  0.00    -0.296 N 
ATOM     17  H   CYS A   7      31.546  16.306  22.632  0.00  0.00    +0.150 HD
BRANCH  16  18
ATOM     18  CA  CYS A   7      30.583  18.176  23.142  0.00  0.00    +0.160 C 
BRANCH  18  19
ATOM     19  C   CYS A   7      29.070  18.113  23.211  0.00  0.00    +0.241 C 
ATOM     20  O   CYS A   7      28.377  19.136  23.321  0.00  0.00    -0.273 OA
ATOM     21  N   ALA A   8      28.520  16.884  23.143  0.00  0.00    -0.295 N 
ATOM     22  H   ALA A   8      29.158  16.078  22.985  0.00  0.00    +0.150 HD
BRANCH  21  23
ATOM     23  CA  ALA A   8      27.078  16.601  23.277  0.00  0.00    +0.178 C 
BRANCH  23  24
ATOM     24  C   ALA A   8      26.317  17.364  24.337  0.00  0.00    +0.243 C 
ATOM     25  O   ALA A   8      26.817  17.530  25.437  0.00  0.00    -0.273 OA
ATOM     26  N   GLN A   9      25.135  17.884  24.035  0.00  0.00    -0.296 N 
ATOM     27  H   GLN A   9      24.747  17.729  23.082  0.00  0.00    +0.150 HD
BRANCH  26  28
ATOM     28  CA  GLN A   9      24.359  18.666  24.991  0.00  0.00    +0.163 C 
BRANCH  28  29
ATOM     29  C   GLN A   9      24.711  20.143  25.011  0.00  0.00    +0.229 C 
ATOM     30  O   GLN A   9      23.939  20.937  25.511  0.00  0.00    -0.286 OA
ENDBRANCH  28  29
ENDBRANCH  26  28
ENDBRANCH  23  24
BRANCH  23  31
ATOM     31  CB  ALA A   8      26.797  15.143  23.596  0.00  0.00    +0.166 C 
BRANCH  31  32
ATOM     32  O   ALA A   8      26.921  14.370  22.407  0.00  0.00    -0.380 OA
ATOM     33  H   ALA A   8      26.738  13.419  22.613  0.00  0.00    +0.211 HD
ENDBRANCH  31  32
ENDBRANCH  23  31
ENDBRANCH  21  23
ENDBRANCH  18  19
BRANCH  18  34
ATOM     34  CB  CYS A   7      30.967  18.672  21.756  0.00  0.00    +0.143 C 
BRANCH  34  35
ATOM     35  CG  CYS A   7      32.394  19.127  21.598  0.00  0.00    +0.367 C 
ATOM     36  OD2 CYS A   7      32.917  19.706  22.533  0.00  0.00    -0.246 OA
ATOM     37  OD1 CYS A   7      33.017  18.909  20.551  0.00  0.00    -0.246 OA
ENDBRANCH  34  35
ENDBRANCH  18  34
ENDBRANCH  16  18
ENDBRANCH  13  14
ENDBRANCH  10  13
ENDBRANCH   8   9
BRANCH   8  38
ATOM     38  CB  SER A   5      32.728  11.924  21.366  0.00  0.00    +0.039 C 
BRANCH  38  39
ATOM     39  CG  SER A   5      33.623  11.159  22.311  0.00  0.00    +0.087 C 
BRANCH  39  40
ATOM     40  CD  SER A   5      33.124  11.007  23.749  0.00  0.00    +0.219 C 
ATOM     41  OE1 SER A   5      33.725  11.543  24.694  0.00  0.00    -0.275 OA
ATOM     42  NE2 SER A   5      32.027  10.319  24.030  0.00  0.00    -0.329 N 
ATOM     43 HE21 SER A   5      31.698  10.243  25.014  0.00  0.00    +0.145 HD
ATOM     44 HE22 SER A   5      31.495   9.855  23.267  0.00  0.00    +0.145 HD
ENDBRANCH  39  40
ENDBRANCH  38  39
ENDBRANCH   8  38
ENDBRANCH   6   8
ENDBRANCH   3   4
BRANCH   3  46
ATOM     45  C   TRP A   3      32.119  17.827  17.317  0.00  0.00    +0.243 C 
ATOM     46  N   GLY A   4      32.360  17.230  18.469  0.00  0.00    -0.296 N 
ATOM     47  H   GLY A   4      32.208  17.750  19.357  0.00  0.00    +0.150 HD
ATOM     48  O   TRP A   3      32.229  17.089  16.318  0.00  0.00    -0.273 OA
BRANCH  45  49
ATOM     49  CA  TRP A   3      31.785  19.347  17.229  0.00  0.00    +0.178 C 
BRANCH  49  52
ATOM     50  C   SER A   2      32.990  20.018  15.279  0.00  0.00    +0.241 C 
ATOM     51  O   SER A   2      33.992  20.157  15.998  0.00  0.00    -0.273 OA
ATOM     52  N   TRP A   3      31.807  19.772  15.827  0.00  0.00    -0.295 N 
ATOM     53  H   TRP A   3      30.928  19.877  15.282  0.00  0.00    +0.150 HD
BRANCH  50  54
ATOM     54  CA  SER A   2      33.088  20.135  13.762  0.00  0.00    +0.160 C 
BRANCH  54  56
ATOM     55  C   VAL A   1      34.513  21.131  12.018  0.00  0.00    +0.238 C 
ATOM     56  N   SER A   2      34.332  20.774  13.304  0.00  0.00    -0.297 N 
ATOM     57  H   SER A   2      35.091  20.955  13.991  0.00  0.00    +0.150 HD
ATOM     58  O   VAL A   1      33.608  21.078  11.170  0.00  0.00    -0.274 OA
BRANCH  55  59
ATOM     59  CA  VAL A   1      35.899  21.656  11.616  0.00  0.00    +0.145 C 
BRANCH  59  60
ATOM     60  N   VAL A   1      36.411  20.868  10.504  0.00  0.00    -0.238 NA
ATOM     61  H   VAL A   1      35.756  20.658   9.724  0.00  0.00    +0.142 HD
ENDBRANCH  59  60
BRANCH  59  62
ATOM     62  CB  VAL A   1      35.763  23.125  11.210  0.00  0.00    +0.026 C 
BRANCH  62  63
ATOM     63  CG  VAL A   1      37.058  23.848  10.901  0.00  0.00    -0.000 C 
BRANCH  63  64
ATOM     64  CD  VAL A   1      36.769  25.253  10.414  0.00  0.00    -0.024 C 
BRANCH  64  65
ATOM     65  CE  VAL A   1      38.020  26.097  10.403  0.00  0.00    -0.086 C 
BRANCH  65  66
ATOM     66  NZ  VAL A   1      38.454  26.378  11.770  0.00  0.00    +0.380 N 
ATOM     67  HZ1 VAL A   1      37.702  26.891  12.273  0.00  0.00    -0.089 HD
ATOM     68  HZ2 VAL A   1      38.652  25.483  12.261  0.00  0.00    -0.089 HD
ATOM     69  HZ3 VAL A   1      39.316  26.960  11.746  0.00  0.00    -0.089 HD
ENDBRANCH  65  66
ENDBRANCH  64  65
ENDBRANCH  63  64
ENDBRANCH  62  63
ENDBRANCH  59  62
ENDBRANCH  55  59
ENDBRANCH  54  56
BRANCH  54  70
ATOM     70  CB  SER A   2      32.994  18.713  13.183  0.00  0.00    +0.143 C 
BRANCH  70  71
ATOM     71  CG  SER A   2      31.639  18.081  13.004  0.00  0.00    +0.367 C 
ATOM     72  OD2 SER A   2      30.631  18.653  13.340  0.00  0.00    -0.246 OA
ATOM     73  OD1 SER A   2      31.569  16.980  12.482  0.00  0.00    -0.246 OA
ENDBRANCH  70  71
ENDBRANCH  54  70
ENDBRANCH  50  54
ENDBRANCH  49  52
BRANCH  49  74
ATOM     74  CB  TRP A   3      30.437  19.634  17.826  0.00  0.00    +0.166 C 
BRANCH  74  75
ATOM     75  O   TRP A   3      29.419  19.025  17.060  0.00  0.00    -0.380 OA
ATOM     76  H   TRP A   3      29.445  19.380  16.136  0.00  0.00    +0.211 HD
ENDBRANCH  74  75
ENDBRANCH  49  74
ENDBRANCH  45  49
ENDBRANCH   3  46
ENDBRANCH   2   3
ENDBRANCH   1   2
BRANCH   1  77
ATOM     77  SG  CYS A   7      33.854  13.557  16.271  0.00  0.00    -0.080 S 
BRANCH  77  78
ATOM     78  CB  CYS A   7      34.510  14.459  14.852  0.00  0.00    +0.098 C 
BRANCH  78  79
ATOM     79  CA  CYS A   7      33.757  14.166  13.574  0.00  0.00    +0.160 C 
BRANCH  79  80
ATOM     80  N   CYS A   7      33.550  12.726  13.378  0.00  0.00    -0.296 N 
ATOM     81  C   GLY A   6      32.375  12.130  13.526  0.00  0.00    +0.243 C 
ATOM     82  O   GLY A   6      31.379  12.844  13.763  0.00  0.00    -0.273 OA
ATOM     83  H   CYS A   7      34.368  12.143  13.109  0.00  0.00    +0.150 HD
BRANCH  81  84
ATOM     84  CA  GLY A   6      32.299  10.593  13.290  0.00  0.00    +0.176 C 
BRANCH  84  85
ATOM     85  N   GLY A   6      30.942  10.161  12.965  0.00  0.00    -0.295 N 
ATOM     86  H   GLY A   6      30.458   9.473  13.576  0.00  0.00    +0.150 HD
ATOM     87  C   SER A   5      30.318  10.647  11.884  0.00  0.00    +0.243 C 
ATOM     88  O   SER A   5      30.952  11.339  11.093  0.00  0.00    -0.273 OA
BRANCH  87  89
ATOM     89  CA  SER A   5      28.826  10.452  11.646  0.00  0.00    +0.178 C 
BRANCH  89  90
ATOM     90  N   SER A   5      28.099  11.644  12.030  0.00  0.00    -0.295 N 
ATOM     91  C   GLY A   4      27.571  11.706  13.228  0.00  0.00    +0.243 C 
ATOM     92  O   GLY A   4      27.565  10.792  14.046  0.00  0.00    -0.273 OA
ATOM     93  H   SER A   5      27.997  12.438  11.366  0.00  0.00    +0.150 HD
BRANCH  91  94
ATOM     94  CA  GLY A   4      26.908  13.014  13.538  0.00  0.00    +0.176 C 
BRANCH  94  95
ATOM     95  N   GLY A   4      26.275  12.916  14.830  0.00  0.00    -0.295 N 
ATOM     96  H   GLY A   4      26.313  12.021  15.358  0.00  0.00    +0.150 HD
ATOM     97  C   TRP A   3      25.646  13.959  15.348  0.00  0.00    +0.241 C 
ATOM     98  O   TRP A   3      25.751  15.058  14.786  0.00  0.00    -0.273 OA
BRANCH  97  99
ATOM     99  CA  TRP A   3      24.903  13.713  16.682  0.00  0.00    +0.153 C 
BRANCH  99 100
ATOM    100  N   TRP A   3      24.257  14.871  17.268  0.00  0.00    -0.297 N 
ATOM    101  C   SER A   2      23.991  14.940  18.565  0.00  0.00    +0.243 C 
ATOM    102  O   SER A   2      24.396  14.058  19.314  0.00  0.00    -0.273 OA
ATOM    103  H   TRP A   3      23.995  15.669  16.655  0.00  0.00    +0.150 HD
BRANCH 101 104
ATOM    104  CA  SER A   2      23.278  16.130  19.158  0.00  0.00    +0.178 C 
BRANCH 104 105
ATOM    105  N   SER A   2      24.023  17.379  19.078  0.00  0.00    -0.295 N 
ATOM    106  C   VAL A   1      24.422  17.980  20.207  0.00  0.00    +0.238 C 
ATOM    107  O   VAL A   1      24.206  17.507  21.339  0.00  0.00    -0.274 OA
ATOM    108  H   SER A   2      24.243  17.800  18.153  0.00  0.00    +0.150 HD
BRANCH 106 109
ATOM    109  CA  VAL A   1      25.014  19.379  19.956  0.00  0.00    +0.145 C 
BRANCH 109 110
ATOM    110  CB  VAL A   1      26.438  19.501  20.536  0.00  0.00    +0.025 C 
ATOM    111  CG2 VAL A   1      26.927  20.938  20.386  0.00  0.00    +0.002 C 
ATOM    112  CG1 VAL A   1      27.414  18.571  19.785  0.00  0.00    +0.002 C 
ENDBRANCH 109 110
BRANCH 109 113
ATOM    113  N   VAL A   1      24.132  20.396  20.570  0.00  0.00    -0.238 NA
ATOM    114  H   VAL A   1      24.526  21.032  21.293  0.00  0.00    +0.142 HD
ENDBRANCH 109 113
ENDBRANCH 106 109
ENDBRANCH 104 105
BRANCH 104 115
ATOM    115  CB  SER A   2      21.924  16.301  18.479  0.00  0.00    +0.166 C 
BRANCH 115 116
ATOM    116  OG  SER A   2      21.237  15.070  18.497  0.00  0.00    -0.380 OA
ATOM    117  H   SER A   2      21.105  14.781  19.435  0.00  0.00    +0.211 HD
ENDBRANCH 115 116
ENDBRANCH 104 115
ENDBRANCH 101 104
ENDBRANCH  99 100
BRANCH  99 118
ATOM    118  CB  TRP A   3      23.845  12.586  16.487  0.00  0.00    +0.057 C 
BRANCH 118 119
ATOM    119  CG  TRP A   3      22.742  12.810  15.451  0.00  0.00    -0.002 A 
ATOM    120  CD1 TRP A   3      21.578  13.446  15.769  0.00  0.00    +0.068 A 
ATOM    121  NE1 TRP A   3      20.837  13.399  14.691  0.00  0.00    -0.352 N 
ATOM    122  HE1 TRP A   3      19.880  13.799  14.617  0.00  0.00    +0.166 HD
ATOM    123  CE2 TRP A   3      21.476  12.765  13.693  0.00  0.00    +0.056 A 
ATOM    124  CZ2 TRP A   3      21.072  12.496  12.382  0.00  0.00    +0.017 A 
ATOM    125  CH2 TRP A   3      21.944  11.827  11.533  0.00  0.00    +0.001 A 
ATOM    126  CZ3 TRP A   3      23.198  11.436  11.983  0.00  0.00    +0.000 A 
ATOM    127  CE3 TRP A   3      23.618  11.689  13.284  0.00  0.00    +0.001 A 
ATOM    128  CD2 TRP A   3      22.741  12.363  14.138  0.00  0.00    +0.013 A 
ENDBRANCH 118 119
ENDBRANCH  99 118
ENDBRANCH  97  99
ENDBRANCH  94  95
ENDBRANCH  91  94
ENDBRANCH  89  90
BRANCH  89 129
ATOM    129  CB  SER A   5      28.500  10.199  10.193  0.00  0.00    +0.166 C 
BRANCH 129 130
ATOM    130  OG  SER A   5      29.138   9.004   9.834  0.00  0.00    -0.380 OA
ATOM    131  H   SER A   5      28.801   8.267  10.403  0.00  0.00    +0.211 HD
ENDBRANCH 129 130
ENDBRANCH  89 129
ENDBRANCH  87  89
ENDBRANCH  84  85
ENDBRANCH  81  84
ENDBRANCH  79  80
BRANCH  79 132
ATOM    132  C   CYS A   7      34.594  14.764  12.452  0.00  0.00    +0.242 C 
ATOM    133  O   CYS A   7      35.562  14.158  12.000  0.00  0.00    -0.273 OA
ATOM    134  N   ALA A   8      34.263  15.957  11.974  0.00  0.00    -0.297 N 
ATOM    135  H   ALA A   8      33.407  16.402  12.361  0.00  0.00    +0.150 HD
BRANCH 134 136
ATOM    136  CA  ALA A   8      34.996  16.699  10.952  0.00  0.00    +0.149 C 
ATOM    137  CB  ALA A   8      36.315  17.180  11.572  0.00  0.00    +0.031 C 
BRANCH 136 138
ATOM    138  C   ALA A   8      35.267  15.947   9.627  0.00  0.00    +0.241 C 
ATOM    139  N   GLN A   9      34.480  14.905   9.335  0.00  0.00    -0.298 N 
ATOM    140  H   GLN A   9      33.777  14.591  10.034  0.00  0.00    +0.150 HD
ATOM    141  O   ALA A   8      36.187  16.260   8.870  0.00  0.00    -0.273 OA
BRANCH 139 142
ATOM    142  CA  GLN A   9      34.579  14.201   8.071  0.00  0.00    +0.137 C 
BRANCH 142 143
ATOM    143  C   GLN A   9      33.891  14.950   6.939  0.00  0.00    +0.227 C 
ATOM    144  O   GLN A   9      32.876  15.644   7.126  0.00  0.00    -0.286 OA
ENDBRANCH 142 143
BRANCH 142 145
ATOM    145  CB  GLN A   9      33.924  12.825   8.119  0.00  0.00    +0.037 C 
BRANCH 145 146
ATOM    146  CG  GLN A   9      34.418  11.914   9.228  0.00  0.00    +0.087 C 
BRANCH 146 147
ATOM    147  CD  GLN A   9      35.890  11.613   9.063  0.00  0.00    +0.219 C 
ATOM    148  OE1 GLN A   9      36.771  12.031   9.825  0.00  0.00    -0.275 OA
ATOM    149  NE2 GLN A   9      36.189  10.861   8.013  0.00  0.00    -0.329 N 
ATOM    150 HE21 GLN A   9      37.180  10.612   7.817  0.00  0.00    +0.145 HD
ATOM    151 HE22 GLN A   9      35.433  10.520   7.385  0.00  0.00    +0.145 HD
ENDBRANCH 146 147
ENDBRANCH 145 146
ENDBRANCH 142 145
ENDBRANCH 139 142
ENDBRANCH 136 138
ENDBRANCH 134 136
ENDBRANCH  79 132
ENDBRANCH  78  79
ENDBRANCH  77  78
ENDBRANCH   1  77
TORSDOF 67
REMARK  Name = ../refined-set-2016/1tni/1tni_pocket.pdb
REMARK  119 active torsions:
REMARK  status: ('A' for Active; 'I' for Inactive)
REMARK    1  A    between atoms: _1  and  _5
REMARK    2  A    between atoms: _5  and  _6
REMARK    3  A    between atoms: _5  and  _8
REMARK    4  A    between atoms: _8  and  _9
REMARK    5  A    between atoms: _12  and  _14
REMARK    6  A    between atoms: _14  and  _15
REMARK    7  A    between atoms: _14  and  _17
REMARK    8  A    between atoms: _20  and  _22
REMARK    9  A    between atoms: _22  and  _23
REMARK   10  A    between atoms: _22  and  _25
REMARK   11  A    between atoms: _25  and  _26
REMARK   12  A    between atoms: _31  and  _33
REMARK   13  A    between atoms: _33  and  _34
REMARK   14  A    between atoms: _33  and  _36
REMARK   15  A    between atoms: _36  and  _37
REMARK   16  A    between atoms: _42  and  _44
REMARK   17  A    between atoms: _44  and  _45
REMARK   18  A    between atoms: _44  and  _47
REMARK   19  A    between atoms: _47  and  _48
REMARK   20  A    between atoms: _48  and  _49
REMARK   21  A    between atoms: _49  and  _50
REMARK   22  A    between atoms: _50  and  _51
REMARK   23  A    between atoms: _55  and  _57
REMARK   24  A    between atoms: _57  and  _58
REMARK   25  A    between atoms: _57  and  _60
REMARK   26  A    between atoms: _60  and  _61
REMARK   27  A    between atoms: _66  and  _67
REMARK   28  A    between atoms: _69  and  _71
REMARK   29  A    between atoms: _71  and  _72
REMARK   30  A    between atoms: _71  and  _74
REMARK   31  A    between atoms: _74  and  _75
REMARK   32  A    between atoms: _80  and  _81
REMARK   33  A    between atoms: _83  and  _85
REMARK   34  A    between atoms: _85  and  _86
REMARK   35  A    between atoms: _89  and  _91
REMARK   36  A    between atoms: _91  and  _92
REMARK   37  A    between atoms: _91  and  _94
REMARK   38  A    between atoms: _94  and  _95
REMARK   39  A    between atoms: _95  and  _96
REMARK   40  A    between atoms: _96  and  _97
REMARK   41  A    between atoms: _97  and  _98
REMARK   42  A    between atoms: _102  and  _104
REMARK   43  A    between atoms: _104  and  _105
REMARK   44  A    between atoms: _104  and  _107
REMARK   45  A    between atoms: _107  and  _108
REMARK   46  A    between atoms: _111  and  _113
REMARK   47  A    between atoms: _113  and  _114
REMARK   48  A    between atoms: _113  and  _116
REMARK   49  A    between atoms: _116  and  _117
REMARK   50  A    between atoms: _119  and  _121
REMARK   51  A    between atoms: _121  and  _122
REMARK   52  A    between atoms: _121  and  _124
REMARK   53  A    between atoms: _124  and  _125
REMARK   54  A    between atoms: _125  and  _221
REMARK   55  A    between atoms: _126  and  _128
REMARK   56  A    between atoms: _128  and  _129
REMARK   57  A    between atoms: _128  and  _131
REMARK   58  A    between atoms: _131  and  _132
REMARK   59  A    between atoms: _132  and  _133
REMARK   60  A    between atoms: _138  and  _140
REMARK   61  A    between atoms: _140  and  _141
REMARK   62  A    between atoms: _143  and  _145
REMARK   63  A    between atoms: _145  and  _146
REMARK   64  A    between atoms: _145  and  _148
REMARK   65  A    between atoms: _148  and  _149
REMARK   66  A    between atoms: _152  and  _154
REMARK   67  A    between atoms: _154  and  _155
REMARK   68  A    between atoms: _154  and  _157
REMARK   69  A    between atoms: _157  and  _158
REMARK   70  A    between atoms: _160  and  _162
REMARK   71  A    between atoms: _162  and  _163
REMARK   72  A    between atoms: _165  and  _167
REMARK   73  A    between atoms: _167  and  _168
REMARK   74  A    between atoms: _167  and  _170
REMARK   75  A    between atoms: _173  and  _175
REMARK   76  A    between atoms: _175  and  _176
REMARK   77  A    between atoms: _175  and  _178
REMARK   78  A    between atoms: _178  and  _179
REMARK   79  A    between atoms: _181  and  _183
REMARK   80  A    between atoms: _183  and  _184
REMARK   81  A    between atoms: _183  and  _186
REMARK   82  A    between atoms: _186  and  _187
REMARK   83  A    between atoms: _197  and  _199
REMARK   84  A    between atoms: _199  and  _200
REMARK   85  A    between atoms: _202  and  _204
REMARK   86  A    between atoms: _204  and  _205
REMARK   87  A    between atoms: _204  and  _207
REMARK   88  A    between atoms: _207  and  _208
REMARK   89  A    between atoms: _210  and  _212
REMARK   90  A    between atoms: _212  and  _213
REMARK   91  A    between atoms: _215  and  _217
REMARK   92  A    between atoms: _217  and  _218
REMARK   93  A    between atoms: _217  and  _220
REMARK   94  A    between atoms: _220  and  _221
REMARK   95  A    between atoms: _222  and  _224
REMARK   96  A    between atoms: _224  and  _225
REMARK   97  A    between atoms: _228  and  _230
REMARK   98  A    between atoms: _230  and  _231
REMARK   99  A    between atoms: _230  and  _233
REMARK  100  A    between atoms: _233  and  _234
REMARK  101  A    between atoms: _234  and  _235
REMARK  102  A    between atoms: _240  and  _242
REMARK  103  A    between atoms: _242  and  _243
REMARK  104  A    between atoms: _242  and  _245
REMARK  105  A    between atoms: _245  and  _246
REMARK  106  A    between atoms: _246  and  _247
REMARK  107  A    between atoms: _247  and  _248
REMARK  108  A    between atoms: _248  and  _249
REMARK  109  A    between atoms: _254  and  _255
REMARK  110  A    between atoms: _260  and  _262
REMARK  111  A    between atoms: _262  and  _263
REMARK  112  A    between atoms: _265  and  _267
REMARK  113  A    between atoms: _267  and  _268
REMARK  114  A    between atoms: _267  and  _270
REMARK  115  A    between atoms: _273  and  _275
REMARK  116  A    between atoms: _275  and  _276
REMARK  117  A    between atoms: _275  and  _278
REMARK  118  A    between atoms: _278  and  _279
REMARK  119  A    between atoms: _284  and  _285
REMARK                            x       y       z     vdW  Elec       q    Type
REMARK                         _______ _______ _______ _____ _____    ______ ____
ROOT
ATOM      1  C   GLY A   3      25.815  18.263  12.627  0.00  0.00    +0.243 C 
ATOM      2  N   VAL A   4      25.049  17.442  13.372  0.00  0.00    -0.297 N 
ATOM      3  H   VAL A   4      25.517  16.691  13.918  0.00  0.00    +0.150 HD
ATOM      4  O   GLY A   3      25.345  19.090  11.835  0.00  0.00    -0.273 OA
ENDROOT
BRANCH   2   5
ATOM      5  CA  VAL A   4      23.585  17.555  13.452  0.00  0.00    +0.149 C 
BRANCH   5   6
ATOM      6  C   VAL A   4      23.184  17.978  14.884  0.00  0.00    +0.241 C 
ATOM      7  O   VAL A   4      23.688  17.545  15.925  0.00  0.00    -0.273 OA
ATOM      8  N   TYR A   5      22.304  18.968  14.893  0.00  0.00    -0.298 N 
ATOM      9  H   TYR A   5      21.867  19.241  13.990  0.00  0.00    +0.150 HD
BRANCH   8  10
ATOM     10  CA  TYR A   5      21.916  19.689  16.078  0.00  0.00    +0.141 C 
BRANCH  10  11
ATOM     11  C   TYR A   5      20.423  19.677  16.291  0.00  0.00    +0.227 C 
ATOM     12  O   TYR A   5      19.631  19.766  15.349  0.00  0.00    -0.286 OA
ENDBRANCH  10  11
BRANCH  10  13
ATOM     13  CB  TYR A   5      22.442  21.163  15.953  0.00  0.00    +0.054 C 
BRANCH  13  14
ATOM     14  CG  TYR A   5      23.962  21.202  15.790  0.00  0.00    -0.020 A 
ATOM     15  CD2 TYR A   5      24.747  21.184  16.930  0.00  0.00    -0.001 A 
ATOM     16  CE2 TYR A   5      26.129  21.136  16.836  0.00  0.00    +0.036 A 
ATOM     17  CZ  TYR A   5      26.713  21.092  15.574  0.00  0.00    +0.134 A 
ATOM     18  CE1 TYR A   5      25.951  21.109  14.419  0.00  0.00    +0.036 A 
ATOM     19  CD1 TYR A   5      24.571  21.173  14.529  0.00  0.00    -0.001 A 
BRANCH  17  20
ATOM     20  OH  TYR A   5      28.084  21.023  15.517  0.00  0.00    -0.506 OA
ATOM     21  HH  TYR A   5      28.432  21.807  15.022  0.00  0.00    +0.292 HD
ENDBRANCH  17  20
ENDBRANCH  13  14
ENDBRANCH  10  13
ENDBRANCH   8  10
ENDBRANCH   5   6
BRANCH   5  22
ATOM     22  CB  VAL A   4      22.897  16.206  13.066  0.00  0.00    +0.027 C 
ATOM     23  CG2 VAL A   4      21.382  16.398  12.984  0.00  0.00    +0.002 C 
ATOM     24  CG1 VAL A   4      23.442  15.714  11.722  0.00  0.00    +0.002 C 
ENDBRANCH   5  22
ENDBRANCH   2   5
BRANCH   1  25
ATOM     25  CA  GLY A   3      27.318  18.051  12.792  0.00  0.00    +0.176 C 
BRANCH  25  27
ATOM     26  C   PRO A   2      27.869  17.496  10.500  0.00  0.00    +0.241 C 
ATOM     27  N   GLY A   3      28.087  18.245  11.589  0.00  0.00    -0.295 N 
ATOM     28  H   GLY A   3      28.824  18.979  11.566  0.00  0.00    +0.150 HD
ATOM     29  O   PRO A   2      27.140  16.492  10.558  0.00  0.00    -0.273 OA
BRANCH  26  33
ATOM     30  C   LYS A   1      29.343  15.633   8.386  0.00  0.00    +0.241 C 
ATOM     31  O   LYS A   1      30.041  15.474   9.405  0.00  0.00    -0.273 OA
ATOM     32  N   PRO A   2      28.603  16.760   8.185  0.00  0.00    -0.272 N 
ATOM     33  CA  PRO A   2      28.564  17.849   9.182  0.00  0.00    +0.152 C 
ATOM     34  CB  PRO A   2      27.863  19.014   8.497  0.00  0.00    +0.031 C 
ATOM     35  CG  PRO A   2      26.878  18.309   7.598  0.00  0.00    +0.024 C 
ATOM     36  CD  PRO A   2      27.760  17.191   7.057  0.00  0.00    +0.094 C 
BRANCH  30  37
ATOM     37  CA  LYS A   1      29.308  14.569   7.274  0.00  0.00    +0.145 C 
BRANCH  37  38
ATOM     38  N   LYS A   1      29.964  15.033   6.059  0.00  0.00    -0.238 NA
ATOM     39  H   LYS A   1      30.927  15.418   6.132  0.00  0.00    +0.142 HD
ENDBRANCH  37  38
BRANCH  37  40
ATOM     40  CB  LYS A   1      29.984  13.246   7.748  0.00  0.00    +0.026 C 
BRANCH  40  41
ATOM     41  CG  LYS A   1      29.753  12.063   6.794  0.00  0.00    -0.000 C 
BRANCH  41  42
ATOM     42  CD  LYS A   1      28.263  11.722   6.720  0.00  0.00    -0.024 C 
BRANCH  42  43
ATOM     43  CE  LYS A   1      27.968  10.771   5.569  0.00  0.00    -0.086 C 
BRANCH  43  44
ATOM     44  NZ  LYS A   1      26.606  10.276   5.589  0.00  0.00    +0.380 N 
ATOM     45  HZ1 LYS A   1      26.438   9.763   6.478  0.00  0.00    -0.089 HD
ATOM     46  HZ2 LYS A   1      25.946  11.077   5.519  0.00  0.00    -0.089 HD
ATOM     47  HZ3 LYS A   1      26.460   9.634   4.784  0.00  0.00    -0.089 HD
ENDBRANCH  43  44
ENDBRANCH  42  43
ENDBRANCH  41  42
ENDBRANCH  40  41
ENDBRANCH  37  40
ENDBRANCH  30  37
ENDBRANCH  26  33
ENDBRANCH  25  27
ENDBRANCH   1  25
TORSDOF 18
REMARK  Name = ../refined-set-2016/1tni/1tni_pocket.pdb
REMARK  119 active torsions:
REMARK  status: ('A' for Active; 'I' for Inactive)
REMARK    1  A    between atoms: _1  and  _5
REMARK    2  A    between atoms: _5  and  _6
REMARK    3  A    between atoms: _5  and  _8
REMARK    4  A    between atoms: _8  and  _9
REMARK    5  A    between atoms: _12  and  _14
REMARK    6  A    between atoms: _14  and  _15
REMARK    7  A    between atoms: _14  and  _17
REMARK    8  A    between atoms: _20  and  _22
REMARK    9  A    between atoms: _22  and  _23
REMARK   10  A    between atoms: _22  and  _25
REMARK   11  A    between atoms: _25  and  _26
REMARK   12  A    between atoms: _31  and  _33
REMARK   13  A    between atoms: _33  and  _34
REMARK   14  A    between atoms: _33  and  _36
REMARK   15  A    between atoms: _36  and  _37
REMARK   16  A    between atoms: _42  and  _44
REMARK   17  A    between atoms: _44  and  _45
REMARK   18  A    between atoms: _44  and  _47
REMARK   19  A    between atoms: _47  and  _48
REMARK   20  A    between atoms: _48  and  _49
REMARK   21  A    between atoms: _49  and  _50
REMARK   22  A    between atoms: _50  and  _51
REMARK   23  A    between atoms: _55  and  _57
REMARK   24  A    between atoms: _57  and  _58
REMARK   25  A    between atoms: _57  and  _60
REMARK   26  A    between atoms: _60  and  _61
REMARK   27  A    between atoms: _66  and  _67
REMARK   28  A    between atoms: _69  and  _71
REMARK   29  A    between atoms: _71  and  _72
REMARK   30  A    between atoms: _71  and  _74
REMARK   31  A    between atoms: _74  and  _75
REMARK   32  A    between atoms: _80  and  _81
REMARK   33  A    between atoms: _83  and  _85
REMARK   34  A    between atoms: _85  and  _86
REMARK   35  A    between atoms: _89  and  _91
REMARK   36  A    between atoms: _91  and  _92
REMARK   37  A    between atoms: _91  and  _94
REMARK   38  A    between atoms: _94  and  _95
REMARK   39  A    between atoms: _95  and  _96
REMARK   40  A    between atoms: _96  and  _97
REMARK   41  A    between atoms: _97  and  _98
REMARK   42  A    between atoms: _102  and  _104
REMARK   43  A    between atoms: _104  and  _105
REMARK   44  A    between atoms: _104  and  _107
REMARK   45  A    between atoms: _107  and  _108
REMARK   46  A    between atoms: _111  and  _113
REMARK   47  A    between atoms: _113  and  _114
REMARK   48  A    between atoms: _113  and  _116
REMARK   49  A    between atoms: _116  and  _117
REMARK   50  A    between atoms: _119  and  _121
REMARK   51  A    between atoms: _121  and  _122
REMARK   52  A    between atoms: _121  and  _124
REMARK   53  A    between atoms: _124  and  _125
REMARK   54  A    between atoms: _125  and  _221
REMARK   55  A    between atoms: _126  and  _128
REMARK   56  A    between atoms: _128  and  _129
REMARK   57  A    between atoms: _128  and  _131
REMARK   58  A    between atoms: _131  and  _132
REMARK   59  A    between atoms: _132  and  _133
REMARK   60  A    between atoms: _138  and  _140
REMARK   61  A    between atoms: _140  and  _141
REMARK   62  A    between atoms: _143  and  _145
REMARK   63  A    between atoms: _145  and  _146
REMARK   64  A    between atoms: _145  and  _148
REMARK   65  A    between atoms: _148  and  _149
REMARK   66  A    between atoms: _152  and  _154
REMARK   67  A    between atoms: _154  and  _155
REMARK   68  A    between atoms: _154  and  _157
REMARK   69  A    between atoms: _157  and  _158
REMARK   70  A    between atoms: _160  and  _162
REMARK   71  A    between atoms: _162  and  _163
REMARK   72  A    between atoms: _165  and  _167
REMARK   73  A    between atoms: _167  and  _168
REMARK   74  A    between atoms: _167  and  _170
REMARK   75  A    between atoms: _173  and  _175
REMARK   76  A    between atoms: _175  and  _176
REMARK   77  A    between atoms: _175  and  _178
REMARK   78  A    between atoms: _178  and  _179
REMARK   79  A    between atoms: _181  and  _183
REMARK   80  A    between atoms: _183  and  _184
REMARK   81  A    between atoms: _183  and  _186
REMARK   82  A    between atoms: _186  and  _187
REMARK   83  A    between atoms: _197  and  _199
REMARK   84  A    between atoms: _199  and  _200
REMARK   85  A    between atoms: _202  and  _204
REMARK   86  A    between atoms: _204  and  _205
REMARK   87  A    between atoms: _204  and  _207
REMARK   88  A    between atoms: _207  and  _208
REMARK   89  A    between atoms: _210  and  _212
REMARK   90  A    between atoms: _212  and  _213
REMARK   91  A    between atoms: _215  and  _217
REMARK   92  A    between atoms: _217  and  _218
REMARK   93  A    between atoms: _217  and  _220
REMARK   94  A    between atoms: _220  and  _221
REMARK   95  A    between atoms: _222  and  _224
REMARK   96  A    between atoms: _224  and  _225
REMARK   97  A    between atoms: _228  and  _230
REMARK   98  A    between atoms: _230  and  _231
REMARK   99  A    between atoms: _230  and  _233
REMARK  100  A    between atoms: _233  and  _234
REMARK  101  A    between atoms: _234  and  _235
REMARK  102  A    between atoms: _240  and  _242
REMARK  103  A    between atoms: _242  and  _243
REMARK  104  A    between atoms: _242  and  _245
REMARK  105  A    between atoms: _245  and  _246
REMARK  106  A    between atoms: _246  and  _247
REMARK  107  A    between atoms: _247  and  _248
REMARK  108  A    between atoms: _248  and  _249
REMARK  109  A    between atoms: _254  and  _255
REMARK  110  A    between atoms: _260  and  _262
REMARK  111  A    between atoms: _262  and  _263
REMARK  112  A    between atoms: _265  and  _267
REMARK  113  A    between atoms: _267  and  _268
REMARK  114  A    between atoms: _267  and  _270
REMARK  115  A    between atoms: _273  and  _275
REMARK  116  A    between atoms: _275  and  _276
REMARK  117  A    between atoms: _275  and  _278
REMARK  118  A    between atoms: _278  and  _279
REMARK  119  A    between atoms: _284  and  _285
REMARK                            x       y       z     vdW  Elec       q    Type
REMARK                         _______ _______ _______ _____ _____    ______ ____
ROOT
ATOM      1  O   HOH     1      29.438   8.663  14.946  0.00  0.00    +0.000 OA
ENDROOT
TORSDOF 0
REMARK  Name = ../refined-set-2016/1tni/1tni_pocket.pdb
REMARK  119 active torsions:
REMARK  status: ('A' for Active; 'I' for Inactive)
REMARK    1  A    between atoms: _1  and  _5
REMARK    2  A    between atoms: _5  and  _6
REMARK    3  A    between atoms: _5  and  _8
REMARK    4  A    between atoms: _8  and  _9
REMARK    5  A    between atoms: _12  and  _14
REMARK    6  A    between atoms: _14  and  _15
REMARK    7  A    between atoms: _14  and  _17
REMARK    8  A    between atoms: _20  and  _22
REMARK    9  A    between atoms: _22  and  _23
REMARK   10  A    between atoms: _22  and  _25
REMARK   11  A    between atoms: _25  and  _26
REMARK   12  A    between atoms: _31  and  _33
REMARK   13  A    between atoms: _33  and  _34
REMARK   14  A    between atoms: _33  and  _36
REMARK   15  A    between atoms: _36  and  _37
REMARK   16  A    between atoms: _42  and  _44
REMARK   17  A    between atoms: _44  and  _45
REMARK   18  A    between atoms: _44  and  _47
REMARK   19  A    between atoms: _47  and  _48
REMARK   20  A    between atoms: _48  and  _49
REMARK   21  A    between atoms: _49  and  _50
REMARK   22  A    between atoms: _50  and  _51
REMARK   23  A    between atoms: _55  and  _57
REMARK   24  A    between atoms: _57  and  _58
REMARK   25  A    between atoms: _57  and  _60
REMARK   26  A    between atoms: _60  and  _61
REMARK   27  A    between atoms: _66  and  _67
REMARK   28  A    between atoms: _69  and  _71
REMARK   29  A    between atoms: _71  and  _72
REMARK   30  A    between atoms: _71  and  _74
REMARK   31  A    between atoms: _74  and  _75
REMARK   32  A    between atoms: _80  and  _81
REMARK   33  A    between atoms: _83  and  _85
REMARK   34  A    between atoms: _85  and  _86
REMARK   35  A    between atoms: _89  and  _91
REMARK   36  A    between atoms: _91  and  _92
REMARK   37  A    between atoms: _91  and  _94
REMARK   38  A    between atoms: _94  and  _95
REMARK   39  A    between atoms: _95  and  _96
REMARK   40  A    between atoms: _96  and  _97
REMARK   41  A    between atoms: _97  and  _98
REMARK   42  A    between atoms: _102  and  _104
REMARK   43  A    between atoms: _104  and  _105
REMARK   44  A    between atoms: _104  and  _107
REMARK   45  A    between atoms: _107  and  _108
REMARK   46  A    between atoms: _111  and  _113
REMARK   47  A    between atoms: _113  and  _114
REMARK   48  A    between atoms: _113  and  _116
REMARK   49  A    between atoms: _116  and  _117
REMARK   50  A    between atoms: _119  and  _121
REMARK   51  A    between atoms: _121  and  _122
REMARK   52  A    between atoms: _121  and  _124
REMARK   53  A    between atoms: _124  and  _125
REMARK   54  A    between atoms: _125  and  _221
REMARK   55  A    between atoms: _126  and  _128
REMARK   56  A    between atoms: _128  and  _129
REMARK   57  A    between atoms: _128  and  _131
REMARK   58  A    between atoms: _131  and  _132
REMARK   59  A    between atoms: _132  and  _133
REMARK   60  A    between atoms: _138  and  _140
REMARK   61  A    between atoms: _140  and  _141
REMARK   62  A    between atoms: _143  and  _145
REMARK   63  A    between atoms: _145  and  _146
REMARK   64  A    between atoms: _145  and  _148
REMARK   65  A    between atoms: _148  and  _149
REMARK   66  A    between atoms: _152  and  _154
REMARK   67  A    between atoms: _154  and  _155
REMARK   68  A    between atoms: _154  and  _157
REMARK   69  A    between atoms: _157  and  _158
REMARK   70  A    between atoms: _160  and  _162
REMARK   71  A    between atoms: _162  and  _163
REMARK   72  A    between atoms: _165  and  _167
REMARK   73  A    between atoms: _167  and  _168
REMARK   74  A    between atoms: _167  and  _170
REMARK   75  A    between atoms: _173  and  _175
REMARK   76  A    between atoms: _175  and  _176
REMARK   77  A    between atoms: _175  and  _178
REMARK   78  A    between atoms: _178  and  _179
REMARK   79  A    between atoms: _181  and  _183
REMARK   80  A    between atoms: _183  and  _184
REMARK   81  A    between atoms: _183  and  _186
REMARK   82  A    between atoms: _186  and  _187
REMARK   83  A    between atoms: _197  and  _199
REMARK   84  A    between atoms: _199  and  _200
REMARK   85  A    between atoms: _202  and  _204
REMARK   86  A    between atoms: _204  and  _205
REMARK   87  A    between atoms: _204  and  _207
REMARK   88  A    between atoms: _207  and  _208
REMARK   89  A    between atoms: _210  and  _212
REMARK   90  A    between atoms: _212  and  _213
REMARK   91  A    between atoms: _215  and  _217
REMARK   92  A    between atoms: _217  and  _218
REMARK   93  A    between atoms: _217  and  _220
REMARK   94  A    between atoms: _220  and  _221
REMARK   95  A    between atoms: _222  and  _224
REMARK   96  A    between atoms: _224  and  _225
REMARK   97  A    between atoms: _228  and  _230
REMARK   98  A    between atoms: _230  and  _231
REMARK   99  A    between atoms: _230  and  _233
REMARK  100  A    between atoms: _233  and  _234
REMARK  101  A    between atoms: _234  and  _235
REMARK  102  A    between atoms: _240  and  _242
REMARK  103  A    between atoms: _242  and  _243
REMARK  104  A    between atoms: _242  and  _245
REMARK  105  A    between atoms: _245  and  _246
REMARK  106  A    between atoms: _246  and  _247
REMARK  107  A    between atoms: _247  and  _248
REMARK  108  A    between atoms: _248  and  _249
REMARK  109  A    between atoms: _254  and  _255
REMARK  110  A    between atoms: _260  and  _262
REMARK  111  A    between atoms: _262  and  _263
REMARK  112  A    between atoms: _265  and  _267
REMARK  113  A    between atoms: _267  and  _268
REMARK  114  A    between atoms: _267  and  _270
REMARK  115  A    between atoms: _273  and  _275
REMARK  116  A    between atoms: _275  and  _276
REMARK  117  A    between atoms: _275  and  _278
REMARK  118  A    between atoms: _278  and  _279
REMARK  119  A    between atoms: _284  and  _285
REMARK                            x       y       z     vdW  Elec       q    Type
REMARK                         _______ _______ _______ _____ _____    ______ ____
ROOT
ATOM      1  O   HOH     1      37.434  11.258  16.411  0.00  0.00    +0.000 OA
ENDROOT
TORSDOF 0
REMARK  Name = ../refined-set-2016/1tni/1tni_pocket.pdb
REMARK  119 active torsions:
REMARK  status: ('A' for Active; 'I' for Inactive)
REMARK    1  A    between atoms: _1  and  _5
REMARK    2  A    between atoms: _5  and  _6
REMARK    3  A    between atoms: _5  and  _8
REMARK    4  A    between atoms: _8  and  _9
REMARK    5  A    between atoms: _12  and  _14
REMARK    6  A    between atoms: _14  and  _15
REMARK    7  A    between atoms: _14  and  _17
REMARK    8  A    between atoms: _20  and  _22
REMARK    9  A    between atoms: _22  and  _23
REMARK   10  A    between atoms: _22  and  _25
REMARK   11  A    between atoms: _25  and  _26
REMARK   12  A    between atoms: _31  and  _33
REMARK   13  A    between atoms: _33  and  _34
REMARK   14  A    between atoms: _33  and  _36
REMARK   15  A    between atoms: _36  and  _37
REMARK   16  A    between atoms: _42  and  _44
REMARK   17  A    between atoms: _44  and  _45
REMARK   18  A    between atoms: _44  and  _47
REMARK   19  A    between atoms: _47  and  _48
REMARK   20  A    between atoms: _48  and  _49
REMARK   21  A    between atoms: _49  and  _50
REMARK   22  A    between atoms: _50  and  _51
REMARK   23  A    between atoms: _55  and  _57
REMARK   24  A    between atoms: _57  and  _58
REMARK   25  A    between atoms: _57  and  _60
REMARK   26  A    between atoms: _60  and  _61
REMARK   27  A    between atoms: _66  and  _67
REMARK   28  A    between atoms: _69  and  _71
REMARK   29  A    between atoms: _71  and  _72
REMARK   30  A    between atoms: _71  and  _74
REMARK   31  A    between atoms: _74  and  _75
REMARK   32  A    between atoms: _80  and  _81
REMARK   33  A    between atoms: _83  and  _85
REMARK   34  A    between atoms: _85  and  _86
REMARK   35  A    between atoms: _89  and  _91
REMARK   36  A    between atoms: _91  and  _92
REMARK   37  A    between atoms: _91  and  _94
REMARK   38  A    between atoms: _94  and  _95
REMARK   39  A    between atoms: _95  and  _96
REMARK   40  A    between atoms: _96  and  _97
REMARK   41  A    between atoms: _97  and  _98
REMARK   42  A    between atoms: _102  and  _104
REMARK   43  A    between atoms: _104  and  _105
REMARK   44  A    between atoms: _104  and  _107
REMARK   45  A    between atoms: _107  and  _108
REMARK   46  A    between atoms: _111  and  _113
REMARK   47  A    between atoms: _113  and  _114
REMARK   48  A    between atoms: _113  and  _116
REMARK   49  A    between atoms: _116  and  _117
REMARK   50  A    between atoms: _119  and  _121
REMARK   51  A    between atoms: _121  and  _122
REMARK   52  A    between atoms: _121  and  _124
REMARK   53  A    between atoms: _124  and  _125
REMARK   54  A    between atoms: _125  and  _221
REMARK   55  A    between atoms: _126  and  _128
REMARK   56  A    between atoms: _128  and  _129
REMARK   57  A    between atoms: _128  and  _131
REMARK   58  A    between atoms: _131  and  _132
REMARK   59  A    between atoms: _132  and  _133
REMARK   60  A    between atoms: _138  and  _140
REMARK   61  A    between atoms: _140  and  _141
REMARK   62  A    between atoms: _143  and  _145
REMARK   63  A    between atoms: _145  and  _146
REMARK   64  A    between atoms: _145  and  _148
REMARK   65  A    between atoms: _148  and  _149
REMARK   66  A    between atoms: _152  and  _154
REMARK   67  A    between atoms: _154  and  _155
REMARK   68  A    between atoms: _154  and  _157
REMARK   69  A    between atoms: _157  and  _158
REMARK   70  A    between atoms: _160  and  _162
REMARK   71  A    between atoms: _162  and  _163
REMARK   72  A    between atoms: _165  and  _167
REMARK   73  A    between atoms: _167  and  _168
REMARK   74  A    between atoms: _167  and  _170
REMARK   75  A    between atoms: _173  and  _175
REMARK   76  A    between atoms: _175  and  _176
REMARK   77  A    between atoms: _175  and  _178
REMARK   78  A    between atoms: _178  and  _179
REMARK   79  A    between atoms: _181  and  _183
REMARK   80  A    between atoms: _183  and  _184
REMARK   81  A    between atoms: _183  and  _186
REMARK   82  A    between atoms: _186  and  _187
REMARK   83  A    between atoms: _197  and  _199
REMARK   84  A    between atoms: _199  and  _200
REMARK   85  A    between atoms: _202  and  _204
REMARK   86  A    between atoms: _204  and  _205
REMARK   87  A    between atoms: _204  and  _207
REMARK   88  A    between atoms: _207  and  _208
REMARK   89  A    between atoms: _210  and  _212
REMARK   90  A    between atoms: _212  and  _213
REMARK   91  A    between atoms: _215  and  _217
REMARK   92  A    between atoms: _217  and  _218
REMARK   93  A    between atoms: _217  and  _220
REMARK   94  A    between atoms: _220  and  _221
REMARK   95  A    between atoms: _222  and  _224
REMARK   96  A    between atoms: _224  and  _225
REMARK   97  A    between atoms: _228  and  _230
REMARK   98  A    between atoms: _230  and  _231
REMARK   99  A    between atoms: _230  and  _233
REMARK  100  A    between atoms: _233  and  _234
REMARK  101  A    between atoms: _234  and  _235
REMARK  102  A    between atoms: _240  and  _242
REMARK  103  A    between atoms: _242  and  _243
REMARK  104  A    between atoms: _242  and  _245
REMARK  105  A    between atoms: _245  and  _246
REMARK  106  A    between atoms: _246  and  _247
REMARK  107  A    between atoms: _247  and  _248
REMARK  108  A    between atoms: _248  and  _249
REMARK  109  A    between atoms: _254  and  _255
REMARK  110  A    between atoms: _260  and  _262
REMARK  111  A    between atoms: _262  and  _263
REMARK  112  A    between atoms: _265  and  _267
REMARK  113  A    between atoms: _267  and  _268
REMARK  114  A    between atoms: _267  and  _270
REMARK  115  A    between atoms: _273  and  _275
REMARK  116  A    between atoms: _275  and  _276
REMARK  117  A    between atoms: _275  and  _278
REMARK  118  A    between atoms: _278  and  _279
REMARK  119  A    between atoms: _284  and  _285
REMARK                            x       y       z     vdW  Elec       q    Type
REMARK                         _______ _______ _______ _____ _____    ______ ____
ROOT
ATOM      1  O   HOH     1      28.550  11.710  22.733  0.00  0.00    +0.000 OA
ENDROOT
TORSDOF 0
REMARK  Name = ../refined-set-2016/1tni/1tni_pocket.pdb
REMARK  119 active torsions:
REMARK  status: ('A' for Active; 'I' for Inactive)
REMARK    1  A    between atoms: _1  and  _5
REMARK    2  A    between atoms: _5  and  _6
REMARK    3  A    between atoms: _5  and  _8
REMARK    4  A    between atoms: _8  and  _9
REMARK    5  A    between atoms: _12  and  _14
REMARK    6  A    between atoms: _14  and  _15
REMARK    7  A    between atoms: _14  and  _17
REMARK    8  A    between atoms: _20  and  _22
REMARK    9  A    between atoms: _22  and  _23
REMARK   10  A    between atoms: _22  and  _25
REMARK   11  A    between atoms: _25  and  _26
REMARK   12  A    between atoms: _31  and  _33
REMARK   13  A    between atoms: _33  and  _34
REMARK   14  A    between atoms: _33  and  _36
REMARK   15  A    between atoms: _36  and  _37
REMARK   16  A    between atoms: _42  and  _44
REMARK   17  A    between atoms: _44  and  _45
REMARK   18  A    between atoms: _44  and  _47
REMARK   19  A    between atoms: _47  and  _48
REMARK   20  A    between atoms: _48  and  _49
REMARK   21  A    between atoms: _49  and  _50
REMARK   22  A    between atoms: _50  and  _51
REMARK   23  A    between atoms: _55  and  _57
REMARK   24  A    between atoms: _57  and  _58
REMARK   25  A    between atoms: _57  and  _60
REMARK   26  A    between atoms: _60  and  _61
REMARK   27  A    between atoms: _66  and  _67
REMARK   28  A    between atoms: _69  and  _71
REMARK   29  A    between atoms: _71  and  _72
REMARK   30  A    between atoms: _71  and  _74
REMARK   31  A    between atoms: _74  and  _75
REMARK   32  A    between atoms: _80  and  _81
REMARK   33  A    between atoms: _83  and  _85
REMARK   34  A    between atoms: _85  and  _86
REMARK   35  A    between atoms: _89  and  _91
REMARK   36  A    between atoms: _91  and  _92
REMARK   37  A    between atoms: _91  and  _94
REMARK   38  A    between atoms: _94  and  _95
REMARK   39  A    between atoms: _95  and  _96
REMARK   40  A    between atoms: _96  and  _97
REMARK   41  A    between atoms: _97  and  _98
REMARK   42  A    between atoms: _102  and  _104
REMARK   43  A    between atoms: _104  and  _105
REMARK   44  A    between atoms: _104  and  _107
REMARK   45  A    between atoms: _107  and  _108
REMARK   46  A    between atoms: _111  and  _113
REMARK   47  A    between atoms: _113  and  _114
REMARK   48  A    between atoms: _113  and  _116
REMARK   49  A    between atoms: _116  and  _117
REMARK   50  A    between atoms: _119  and  _121
REMARK   51  A    between atoms: _121  and  _122
REMARK   52  A    between atoms: _121  and  _124
REMARK   53  A    between atoms: _124  and  _125
REMARK   54  A    between atoms: _125  and  _221
REMARK   55  A    between atoms: _126  and  _128
REMARK   56  A    between atoms: _128  and  _129
REMARK   57  A    between atoms: _128  and  _131
REMARK   58  A    between atoms: _131  and  _132
REMARK   59  A    between atoms: _132  and  _133
REMARK   60  A    between atoms: _138  and  _140
REMARK   61  A    between atoms: _140  and  _141
REMARK   62  A    between atoms: _143  and  _145
REMARK   63  A    between atoms: _145  and  _146
REMARK   64  A    between atoms: _145  and  _148
REMARK   65  A    between atoms: _148  and  _149
REMARK   66  A    between atoms: _152  and  _154
REMARK   67  A    between atoms: _154  and  _155
REMARK   68  A    between atoms: _154  and  _157
REMARK   69  A    between atoms: _157  and  _158
REMARK   70  A    between atoms: _160  and  _162
REMARK   71  A    between atoms: _162  and  _163
REMARK   72  A    between atoms: _165  and  _167
REMARK   73  A    between atoms: _167  and  _168
REMARK   74  A    between atoms: _167  and  _170
REMARK   75  A    between atoms: _173  and  _175
REMARK   76  A    between atoms: _175  and  _176
REMARK   77  A    between atoms: _175  and  _178
REMARK   78  A    between atoms: _178  and  _179
REMARK   79  A    between atoms: _181  and  _183
REMARK   80  A    between atoms: _183  and  _184
REMARK   81  A    between atoms: _183  and  _186
REMARK   82  A    between atoms: _186  and  _187
REMARK   83  A    between atoms: _197  and  _199
REMARK   84  A    between atoms: _199  and  _200
REMARK   85  A    between atoms: _202  and  _204
REMARK   86  A    between atoms: _204  and  _205
REMARK   87  A    between atoms: _204  and  _207
REMARK   88  A    between atoms: _207  and  _208
REMARK   89  A    between atoms: _210  and  _212
REMARK   90  A    between atoms: _212  and  _213
REMARK   91  A    between atoms: _215  and  _217
REMARK   92  A    between atoms: _217  and  _218
REMARK   93  A    between atoms: _217  and  _220
REMARK   94  A    between atoms: _220  and  _221
REMARK   95  A    between atoms: _222  and  _224
REMARK   96  A    between atoms: _224  and  _225
REMARK   97  A    between atoms: _228  and  _230
REMARK   98  A    between atoms: _230  and  _231
REMARK   99  A    between atoms: _230  and  _233
REMARK  100  A    between atoms: _233  and  _234
REMARK  101  A    between atoms: _234  and  _235
REMARK  102  A    between atoms: _240  and  _242
REMARK  103  A    between atoms: _242  and  _243
REMARK  104  A    between atoms: _242  and  _245
REMARK  105  A    between atoms: _245  and  _246
REMARK  106  A    between atoms: _246  and  _247
REMARK  107  A    between atoms: _247  and  _248
REMARK  108  A    between atoms: _248  and  _249
REMARK  109  A    between atoms: _254  and  _255
REMARK  110  A    between atoms: _260  and  _262
REMARK  111  A    between atoms: _262  and  _263
REMARK  112  A    between atoms: _265  and  _267
REMARK  113  A    between atoms: _267  and  _268
REMARK  114  A    between atoms: _267  and  _270
REMARK  115  A    between atoms: _273  and  _275
REMARK  116  A    between atoms: _275  and  _276
REMARK  117  A    between atoms: _275  and  _278
REMARK  118  A    between atoms: _278  and  _279
REMARK  119  A    between atoms: _284  and  _285
REMARK                            x       y       z     vdW  Elec       q    Type
REMARK                         _______ _______ _______ _____ _____    ______ ____
ROOT
ATOM      1  O   HOH     1      29.412  21.119  13.254  0.00  0.00    +0.000 OA
ENDROOT
TORSDOF 0
REMARK  Name = ../refined-set-2016/1tni/1tni_pocket.pdb
REMARK  119 active torsions:
REMARK  status: ('A' for Active; 'I' for Inactive)
REMARK    1  A    between atoms: _1  and  _5
REMARK    2  A    between atoms: _5  and  _6
REMARK    3  A    between atoms: _5  and  _8
REMARK    4  A    between atoms: _8  and  _9
REMARK    5  A    between atoms: _12  and  _14
REMARK    6  A    between atoms: _14  and  _15
REMARK    7  A    between atoms: _14  and  _17
REMARK    8  A    between atoms: _20  and  _22
REMARK    9  A    between atoms: _22  and  _23
REMARK   10  A    between atoms: _22  and  _25
REMARK   11  A    between atoms: _25  and  _26
REMARK   12  A    between atoms: _31  and  _33
REMARK   13  A    between atoms: _33  and  _34
REMARK   14  A    between atoms: _33  and  _36
REMARK   15  A    between atoms: _36  and  _37
REMARK   16  A    between atoms: _42  and  _44
REMARK   17  A    between atoms: _44  and  _45
REMARK   18  A    between atoms: _44  and  _47
REMARK   19  A    between atoms: _47  and  _48
REMARK   20  A    between atoms: _48  and  _49
REMARK   21  A    between atoms: _49  and  _50
REMARK   22  A    between atoms: _50  and  _51
REMARK   23  A    between atoms: _55  and  _57
REMARK   24  A    between atoms: _57  and  _58
REMARK   25  A    between atoms: _57  and  _60
REMARK   26  A    between atoms: _60  and  _61
REMARK   27  A    between atoms: _66  and  _67
REMARK   28  A    between atoms: _69  and  _71
REMARK   29  A    between atoms: _71  and  _72
REMARK   30  A    between atoms: _71  and  _74
REMARK   31  A    between atoms: _74  and  _75
REMARK   32  A    between atoms: _80  and  _81
REMARK   33  A    between atoms: _83  and  _85
REMARK   34  A    between atoms: _85  and  _86
REMARK   35  A    between atoms: _89  and  _91
REMARK   36  A    between atoms: _91  and  _92
REMARK   37  A    between atoms: _91  and  _94
REMARK   38  A    between atoms: _94  and  _95
REMARK   39  A    between atoms: _95  and  _96
REMARK   40  A    between atoms: _96  and  _97
REMARK   41  A    between atoms: _97  and  _98
REMARK   42  A    between atoms: _102  and  _104
REMARK   43  A    between atoms: _104  and  _105
REMARK   44  A    between atoms: _104  and  _107
REMARK   45  A    between atoms: _107  and  _108
REMARK   46  A    between atoms: _111  and  _113
REMARK   47  A    between atoms: _113  and  _114
REMARK   48  A    between atoms: _113  and  _116
REMARK   49  A    between atoms: _116  and  _117
REMARK   50  A    between atoms: _119  and  _121
REMARK   51  A    between atoms: _121  and  _122
REMARK   52  A    between atoms: _121  and  _124
REMARK   53  A    between atoms: _124  and  _125
REMARK   54  A    between atoms: _125  and  _221
REMARK   55  A    between atoms: _126  and  _128
REMARK   56  A    between atoms: _128  and  _129
REMARK   57  A    between atoms: _128  and  _131
REMARK   58  A    between atoms: _131  and  _132
REMARK   59  A    between atoms: _132  and  _133
REMARK   60  A    between atoms: _138  and  _140
REMARK   61  A    between atoms: _140  and  _141
REMARK   62  A    between atoms: _143  and  _145
REMARK   63  A    between atoms: _145  and  _146
REMARK   64  A    between atoms: _145  and  _148
REMARK   65  A    between atoms: _148  and  _149
REMARK   66  A    between atoms: _152  and  _154
REMARK   67  A    between atoms: _154  and  _155
REMARK   68  A    between atoms: _154  and  _157
REMARK   69  A    between atoms: _157  and  _158
REMARK   70  A    between atoms: _160  and  _162
REMARK   71  A    between atoms: _162  and  _163
REMARK   72  A    between atoms: _165  and  _167
REMARK   73  A    between atoms: _167  and  _168
REMARK   74  A    between atoms: _167  and  _170
REMARK   75  A    between atoms: _173  and  _175
REMARK   76  A    between atoms: _175  and  _176
REMARK   77  A    between atoms: _175  and  _178
REMARK   78  A    between atoms: _178  and  _179
REMARK   79  A    between atoms: _181  and  _183
REMARK   80  A    between atoms: _183  and  _184
REMARK   81  A    between atoms: _183  and  _186
REMARK   82  A    between atoms: _186  and  _187
REMARK   83  A    between atoms: _197  and  _199
REMARK   84  A    between atoms: _199  and  _200
REMARK   85  A    between atoms: _202  and  _204
REMARK   86  A    between atoms: _204  and  _205
REMARK   87  A    between atoms: _204  and  _207
REMARK   88  A    between atoms: _207  and  _208
REMARK   89  A    between atoms: _210  and  _212
REMARK   90  A    between atoms: _212  and  _213
REMARK   91  A    between atoms: _215  and  _217
REMARK   92  A    between atoms: _217  and  _218
REMARK   93  A    between atoms: _217  and  _220
REMARK   94  A    between atoms: _220  and  _221
REMARK   95  A    between atoms: _222  and  _224
REMARK   96  A    between atoms: _224  and  _225
REMARK   97  A    between atoms: _228  and  _230
REMARK   98  A    between atoms: _230  and  _231
REMARK   99  A    between atoms: _230  and  _233
REMARK  100  A    between atoms: _233  and  _234
REMARK  101  A    between atoms: _234  and  _235
REMARK  102  A    between atoms: _240  and  _242
REMARK  103  A    between atoms: _242  and  _243
REMARK  104  A    between atoms: _242  and  _245
REMARK  105  A    between atoms: _245  and  _246
REMARK  106  A    between atoms: _246  and  _247
REMARK  107  A    between atoms: _247  and  _248
REMARK  108  A    between atoms: _248  and  _249
REMARK  109  A    between atoms: _254  and  _255
REMARK  110  A    between atoms: _260  and  _262
REMARK  111  A    between atoms: _262  and  _263
REMARK  112  A    between atoms: _265  and  _267
REMARK  113  A    between atoms: _267  and  _268
REMARK  114  A    between atoms: _267  and  _270
REMARK  115  A    between atoms: _273  and  _275
REMARK  116  A    between atoms: _275  and  _276
REMARK  117  A    between atoms: _275  and  _278
REMARK  118  A    between atoms: _278  and  _279
REMARK  119  A    between atoms: _284  and  _285
REMARK                            x       y       z     vdW  Elec       q    Type
REMARK                         _______ _______ _______ _____ _____    ______ ____
ROOT
ATOM      1  O   HOH     1      26.587  17.540  16.382  0.00  0.00    +0.000 OA
ENDROOT
TORSDOF 0
REMARK  Name = ../refined-set-2016/1tni/1tni_pocket.pdb
REMARK  119 active torsions:
REMARK  status: ('A' for Active; 'I' for Inactive)
REMARK    1  A    between atoms: _1  and  _5
REMARK    2  A    between atoms: _5  and  _6
REMARK    3  A    between atoms: _5  and  _8
REMARK    4  A    between atoms: _8  and  _9
REMARK    5  A    between atoms: _12  and  _14
REMARK    6  A    between atoms: _14  and  _15
REMARK    7  A    between atoms: _14  and  _17
REMARK    8  A    between atoms: _20  and  _22
REMARK    9  A    between atoms: _22  and  _23
REMARK   10  A    between atoms: _22  and  _25
REMARK   11  A    between atoms: _25  and  _26
REMARK   12  A    between atoms: _31  and  _33
REMARK   13  A    between atoms: _33  and  _34
REMARK   14  A    between atoms: _33  and  _36
REMARK   15  A    between atoms: _36  and  _37
REMARK   16  A    between atoms: _42  and  _44
REMARK   17  A    between atoms: _44  and  _45
REMARK   18  A    between atoms: _44  and  _47
REMARK   19  A    between atoms: _47  and  _48
REMARK   20  A    between atoms: _48  and  _49
REMARK   21  A    between atoms: _49  and  _50
REMARK   22  A    between atoms: _50  and  _51
REMARK   23  A    between atoms: _55  and  _57
REMARK   24  A    between atoms: _57  and  _58
REMARK   25  A    between atoms: _57  and  _60
REMARK   26  A    between atoms: _60  and  _61
REMARK   27  A    between atoms: _66  and  _67
REMARK   28  A    between atoms: _69  and  _71
REMARK   29  A    between atoms: _71  and  _72
REMARK   30  A    between atoms: _71  and  _74
REMARK   31  A    between atoms: _74  and  _75
REMARK   32  A    between atoms: _80  and  _81
REMARK   33  A    between atoms: _83  and  _85
REMARK   34  A    between atoms: _85  and  _86
REMARK   35  A    between atoms: _89  and  _91
REMARK   36  A    between atoms: _91  and  _92
REMARK   37  A    between atoms: _91  and  _94
REMARK   38  A    between atoms: _94  and  _95
REMARK   39  A    between atoms: _95  and  _96
REMARK   40  A    between atoms: _96  and  _97
REMARK   41  A    between atoms: _97  and  _98
REMARK   42  A    between atoms: _102  and  _104
REMARK   43  A    between atoms: _104  and  _105
REMARK   44  A    between atoms: _104  and  _107
REMARK   45  A    between atoms: _107  and  _108
REMARK   46  A    between atoms: _111  and  _113
REMARK   47  A    between atoms: _113  and  _114
REMARK   48  A    between atoms: _113  and  _116
REMARK   49  A    between atoms: _116  and  _117
REMARK   50  A    between atoms: _119  and  _121
REMARK   51  A    between atoms: _121  and  _122
REMARK   52  A    between atoms: _121  and  _124
REMARK   53  A    between atoms: _124  and  _125
REMARK   54  A    between atoms: _125  and  _221
REMARK   55  A    between atoms: _126  and  _128
REMARK   56  A    between atoms: _128  and  _129
REMARK   57  A    between atoms: _128  and  _131
REMARK   58  A    between atoms: _131  and  _132
REMARK   59  A    between atoms: _132  and  _133
REMARK   60  A    between atoms: _138  and  _140
REMARK   61  A    between atoms: _140  and  _141
REMARK   62  A    between atoms: _143  and  _145
REMARK   63  A    between atoms: _145  and  _146
REMARK   64  A    between atoms: _145  and  _148
REMARK   65  A    between atoms: _148  and  _149
REMARK   66  A    between atoms: _152  and  _154
REMARK   67  A    between atoms: _154  and  _155
REMARK   68  A    between atoms: _154  and  _157
REMARK   69  A    between atoms: _157  and  _158
REMARK   70  A    between atoms: _160  and  _162
REMARK   71  A    between atoms: _162  and  _163
REMARK   72  A    between atoms: _165  and  _167
REMARK   73  A    between atoms: _167  and  _168
REMARK   74  A    between atoms: _167  and  _170
REMARK   75  A    between atoms: _173  and  _175
REMARK   76  A    between atoms: _175  and  _176
REMARK   77  A    between atoms: _175  and  _178
REMARK   78  A    between atoms: _178  and  _179
REMARK   79  A    between atoms: _181  and  _183
REMARK   80  A    between atoms: _183  and  _184
REMARK   81  A    between atoms: _183  and  _186
REMARK   82  A    between atoms: _186  and  _187
REMARK   83  A    between atoms: _197  and  _199
REMARK   84  A    between atoms: _199  and  _200
REMARK   85  A    between atoms: _202  and  _204
REMARK   86  A    between atoms: _204  and  _205
REMARK   87  A    between atoms: _204  and  _207
REMARK   88  A    between atoms: _207  and  _208
REMARK   89  A    between atoms: _210  and  _212
REMARK   90  A    between atoms: _212  and  _213
REMARK   91  A    between atoms: _215  and  _217
REMARK   92  A    between atoms: _217  and  _218
REMARK   93  A    between atoms: _217  and  _220
REMARK   94  A    between atoms: _220  and  _221
REMARK   95  A    between atoms: _222  and  _224
REMARK   96  A    between atoms: _224  and  _225
REMARK   97  A    between atoms: _228  and  _230
REMARK   98  A    between atoms: _230  and  _231
REMARK   99  A    between atoms: _230  and  _233
REMARK  100  A    between atoms: _233  and  _234
REMARK  101  A    between atoms: _234  and  _235
REMARK  102  A    between atoms: _240  and  _242
REMARK  103  A    between atoms: _242  and  _243
REMARK  104  A    between atoms: _242  and  _245
REMARK  105  A    between atoms: _245  and  _246
REMARK  106  A    between atoms: _246  and  _247
REMARK  107  A    between atoms: _247  and  _248
REMARK  108  A    between atoms: _248  and  _249
REMARK  109  A    between atoms: _254  and  _255
REMARK  110  A    between atoms: _260  and  _262
REMARK  111  A    between atoms: _262  and  _263
REMARK  112  A    between atoms: _265  and  _267
REMARK  113  A    between atoms: _267  and  _268
REMARK  114  A    between atoms: _267  and  _270
REMARK  115  A    between atoms: _273  and  _275
REMARK  116  A    between atoms: _275  and  _276
REMARK  117  A    between atoms: _275  and  _278
REMARK  118  A    between atoms: _278  and  _279
REMARK  119  A    between atoms: _284  and  _285
REMARK                            x       y       z     vdW  Elec       q    Type
REMARK                         _______ _______ _______ _____ _____    ______ ____
ROOT
ATOM      1  O   HOH     1      29.412  13.957  24.994  0.00  0.00    +0.000 OA
ENDROOT
TORSDOF 0
REMARK  Name = ../refined-set-2016/1tni/1tni_pocket.pdb
REMARK  119 active torsions:
REMARK  status: ('A' for Active; 'I' for Inactive)
REMARK    1  A    between atoms: _1  and  _5
REMARK    2  A    between atoms: _5  and  _6
REMARK    3  A    between atoms: _5  and  _8
REMARK    4  A    between atoms: _8  and  _9
REMARK    5  A    between atoms: _12  and  _14
REMARK    6  A    between atoms: _14  and  _15
REMARK    7  A    between atoms: _14  and  _17
REMARK    8  A    between atoms: _20  and  _22
REMARK    9  A    between atoms: _22  and  _23
REMARK   10  A    between atoms: _22  and  _25
REMARK   11  A    between atoms: _25  and  _26
REMARK   12  A    between atoms: _31  and  _33
REMARK   13  A    between atoms: _33  and  _34
REMARK   14  A    between atoms: _33  and  _36
REMARK   15  A    between atoms: _36  and  _37
REMARK   16  A    between atoms: _42  and  _44
REMARK   17  A    between atoms: _44  and  _45
REMARK   18  A    between atoms: _44  and  _47
REMARK   19  A    between atoms: _47  and  _48
REMARK   20  A    between atoms: _48  and  _49
REMARK   21  A    between atoms: _49  and  _50
REMARK   22  A    between atoms: _50  and  _51
REMARK   23  A    between atoms: _55  and  _57
REMARK   24  A    between atoms: _57  and  _58
REMARK   25  A    between atoms: _57  and  _60
REMARK   26  A    between atoms: _60  and  _61
REMARK   27  A    between atoms: _66  and  _67
REMARK   28  A    between atoms: _69  and  _71
REMARK   29  A    between atoms: _71  and  _72
REMARK   30  A    between atoms: _71  and  _74
REMARK   31  A    between atoms: _74  and  _75
REMARK   32  A    between atoms: _80  and  _81
REMARK   33  A    between atoms: _83  and  _85
REMARK   34  A    between atoms: _85  and  _86
REMARK   35  A    between atoms: _89  and  _91
REMARK   36  A    between atoms: _91  and  _92
REMARK   37  A    between atoms: _91  and  _94
REMARK   38  A    between atoms: _94  and  _95
REMARK   39  A    between atoms: _95  and  _96
REMARK   40  A    between atoms: _96  and  _97
REMARK   41  A    between atoms: _97  and  _98
REMARK   42  A    between atoms: _102  and  _104
REMARK   43  A    between atoms: _104  and  _105
REMARK   44  A    between atoms: _104  and  _107
REMARK   45  A    between atoms: _107  and  _108
REMARK   46  A    between atoms: _111  and  _113
REMARK   47  A    between atoms: _113  and  _114
REMARK   48  A    between atoms: _113  and  _116
REMARK   49  A    between atoms: _116  and  _117
REMARK   50  A    between atoms: _119  and  _121
REMARK   51  A    between atoms: _121  and  _122
REMARK   52  A    between atoms: _121  and  _124
REMARK   53  A    between atoms: _124  and  _125
REMARK   54  A    between atoms: _125  and  _221
REMARK   55  A    between atoms: _126  and  _128
REMARK   56  A    between atoms: _128  and  _129
REMARK   57  A    between atoms: _128  and  _131
REMARK   58  A    between atoms: _131  and  _132
REMARK   59  A    between atoms: _132  and  _133
REMARK   60  A    between atoms: _138  and  _140
REMARK   61  A    between atoms: _140  and  _141
REMARK   62  A    between atoms: _143  and  _145
REMARK   63  A    between atoms: _145  and  _146
REMARK   64  A    between atoms: _145  and  _148
REMARK   65  A    between atoms: _148  and  _149
REMARK   66  A    between atoms: _152  and  _154
REMARK   67  A    between atoms: _154  and  _155
REMARK   68  A    between atoms: _154  and  _157
REMARK   69  A    between atoms: _157  and  _158
REMARK   70  A    between atoms: _160  and  _162
REMARK   71  A    between atoms: _162  and  _163
REMARK   72  A    between atoms: _165  and  _167
REMARK   73  A    between atoms: _167  and  _168
REMARK   74  A    between atoms: _167  and  _170
REMARK   75  A    between atoms: _173  and  _175
REMARK   76  A    between atoms: _175  and  _176
REMARK   77  A    between atoms: _175  and  _178
REMARK   78  A    between atoms: _178  and  _179
REMARK   79  A    between atoms: _181  and  _183
REMARK   80  A    between atoms: _183  and  _184
REMARK   81  A    between atoms: _183  and  _186
REMARK   82  A    between atoms: _186  and  _187
REMARK   83  A    between atoms: _197  and  _199
REMARK   84  A    between atoms: _199  and  _200
REMARK   85  A    between atoms: _202  and  _204
REMARK   86  A    between atoms: _204  and  _205
REMARK   87  A    between atoms: _204  and  _207
REMARK   88  A    between atoms: _207  and  _208
REMARK   89  A    between atoms: _210  and  _212
REMARK   90  A    between atoms: _212  and  _213
REMARK   91  A    between atoms: _215  and  _217
REMARK   92  A    between atoms: _217  and  _218
REMARK   93  A    between atoms: _217  and  _220
REMARK   94  A    between atoms: _220  and  _221
REMARK   95  A    between atoms: _222  and  _224
REMARK   96  A    between atoms: _224  and  _225
REMARK   97  A    between atoms: _228  and  _230
REMARK   98  A    between atoms: _230  and  _231
REMARK   99  A    between atoms: _230  and  _233
REMARK  100  A    between atoms: _233  and  _234
REMARK  101  A    between atoms: _234  and  _235
REMARK  102  A    between atoms: _240  and  _242
REMARK  103  A    between atoms: _242  and  _243
REMARK  104  A    between atoms: _242  and  _245
REMARK  105  A    between atoms: _245  and  _246
REMARK  106  A    between atoms: _246  and  _247
REMARK  107  A    between atoms: _247  and  _248
REMARK  108  A    between atoms: _248  and  _249
REMARK  109  A    between atoms: _254  and  _255
REMARK  110  A    between atoms: _260  and  _262
REMARK  111  A    between atoms: _262  and  _263
REMARK  112  A    between atoms: _265  and  _267
REMARK  113  A    between atoms: _267  and  _268
REMARK  114  A    between atoms: _267  and  _270
REMARK  115  A    between atoms: _273  and  _275
REMARK  116  A    between atoms: _275  and  _276
REMARK  117  A    between atoms: _275  and  _278
REMARK  118  A    between atoms: _278  and  _279
REMARK  119  A    between atoms: _284  and  _285
REMARK                            x       y       z     vdW  Elec       q    Type
REMARK                         _______ _______ _______ _____ _____    ______ ____
ROOT
ATOM      1  O   HOH     1      28.720   6.466  11.146  0.00  0.00    +0.000 OA
ENDROOT
TORSDOF 0
REMARK  Name = ../refined-set-2016/1tni/1tni_pocket.pdb
REMARK  119 active torsions:
REMARK  status: ('A' for Active; 'I' for Inactive)
REMARK    1  A    between atoms: _1  and  _5
REMARK    2  A    between atoms: _5  and  _6
REMARK    3  A    between atoms: _5  and  _8
REMARK    4  A    between atoms: _8  and  _9
REMARK    5  A    between atoms: _12  and  _14
REMARK    6  A    between atoms: _14  and  _15
REMARK    7  A    between atoms: _14  and  _17
REMARK    8  A    between atoms: _20  and  _22
REMARK    9  A    between atoms: _22  and  _23
REMARK   10  A    between atoms: _22  and  _25
REMARK   11  A    between atoms: _25  and  _26
REMARK   12  A    between atoms: _31  and  _33
REMARK   13  A    between atoms: _33  and  _34
REMARK   14  A    between atoms: _33  and  _36
REMARK   15  A    between atoms: _36  and  _37
REMARK   16  A    between atoms: _42  and  _44
REMARK   17  A    between atoms: _44  and  _45
REMARK   18  A    between atoms: _44  and  _47
REMARK   19  A    between atoms: _47  and  _48
REMARK   20  A    between atoms: _48  and  _49
REMARK   21  A    between atoms: _49  and  _50
REMARK   22  A    between atoms: _50  and  _51
REMARK   23  A    between atoms: _55  and  _57
REMARK   24  A    between atoms: _57  and  _58
REMARK   25  A    between atoms: _57  and  _60
REMARK   26  A    between atoms: _60  and  _61
REMARK   27  A    between atoms: _66  and  _67
REMARK   28  A    between atoms: _69  and  _71
REMARK   29  A    between atoms: _71  and  _72
REMARK   30  A    between atoms: _71  and  _74
REMARK   31  A    between atoms: _74  and  _75
REMARK   32  A    between atoms: _80  and  _81
REMARK   33  A    between atoms: _83  and  _85
REMARK   34  A    between atoms: _85  and  _86
REMARK   35  A    between atoms: _89  and  _91
REMARK   36  A    between atoms: _91  and  _92
REMARK   37  A    between atoms: _91  and  _94
REMARK   38  A    between atoms: _94  and  _95
REMARK   39  A    between atoms: _95  and  _96
REMARK   40  A    between atoms: _96  and  _97
REMARK   41  A    between atoms: _97  and  _98
REMARK   42  A    between atoms: _102  and  _104
REMARK   43  A    between atoms: _104  and  _105
REMARK   44  A    between atoms: _104  and  _107
REMARK   45  A    between atoms: _107  and  _108
REMARK   46  A    between atoms: _111  and  _113
REMARK   47  A    between atoms: _113  and  _114
REMARK   48  A    between atoms: _113  and  _116
REMARK   49  A    between atoms: _116  and  _117
REMARK   50  A    between atoms: _119  and  _121
REMARK   51  A    between atoms: _121  and  _122
REMARK   52  A    between atoms: _121  and  _124
REMARK   53  A    between atoms: _124  and  _125
REMARK   54  A    between atoms: _125  and  _221
REMARK   55  A    between atoms: _126  and  _128
REMARK   56  A    between atoms: _128  and  _129
REMARK   57  A    between atoms: _128  and  _131
REMARK   58  A    between atoms: _131  and  _132
REMARK   59  A    between atoms: _132  and  _133
REMARK   60  A    between atoms: _138  and  _140
REMARK   61  A    between atoms: _140  and  _141
REMARK   62  A    between atoms: _143  and  _145
REMARK   63  A    between atoms: _145  and  _146
REMARK   64  A    between atoms: _145  and  _148
REMARK   65  A    between atoms: _148  and  _149
REMARK   66  A    between atoms: _152  and  _154
REMARK   67  A    between atoms: _154  and  _155
REMARK   68  A    between atoms: _154  and  _157
REMARK   69  A    between atoms: _157  and  _158
REMARK   70  A    between atoms: _160  and  _162
REMARK   71  A    between atoms: _162  and  _163
REMARK   72  A    between atoms: _165  and  _167
REMARK   73  A    between atoms: _167  and  _168
REMARK   74  A    between atoms: _167  and  _170
REMARK   75  A    between atoms: _173  and  _175
REMARK   76  A    between atoms: _175  and  _176
REMARK   77  A    between atoms: _175  and  _178
REMARK   78  A    between atoms: _178  and  _179
REMARK   79  A    between atoms: _181  and  _183
REMARK   80  A    between atoms: _183  and  _184
REMARK   81  A    between atoms: _183  and  _186
REMARK   82  A    between atoms: _186  and  _187
REMARK   83  A    between atoms: _197  and  _199
REMARK   84  A    between atoms: _199  and  _200
REMARK   85  A    between atoms: _202  and  _204
REMARK   86  A    between atoms: _204  and  _205
REMARK   87  A    between atoms: _204  and  _207
REMARK   88  A    between atoms: _207  and  _208
REMARK   89  A    between atoms: _210  and  _212
REMARK   90  A    between atoms: _212  and  _213
REMARK   91  A    between atoms: _215  and  _217
REMARK   92  A    between atoms: _217  and  _218
REMARK   93  A    between atoms: _217  and  _220
REMARK   94  A    between atoms: _220  and  _221
REMARK   95  A    between atoms: _222  and  _224
REMARK   96  A    between atoms: _224  and  _225
REMARK   97  A    between atoms: _228  and  _230
REMARK   98  A    between atoms: _230  and  _231
REMARK   99  A    between atoms: _230  and  _233
REMARK  100  A    between atoms: _233  and  _234
REMARK  101  A    between atoms: _234  and  _235
REMARK  102  A    between atoms: _240  and  _242
REMARK  103  A    between atoms: _242  and  _243
REMARK  104  A    between atoms: _242  and  _245
REMARK  105  A    between atoms: _245  and  _246
REMARK  106  A    between atoms: _246  and  _247
REMARK  107  A    between atoms: _247  and  _248
REMARK  108  A    between atoms: _248  and  _249
REMARK  109  A    between atoms: _254  and  _255
REMARK  110  A    between atoms: _260  and  _262
REMARK  111  A    between atoms: _262  and  _263
REMARK  112  A    between atoms: _265  and  _267
REMARK  113  A    between atoms: _267  and  _268
REMARK  114  A    between atoms: _267  and  _270
REMARK  115  A    between atoms: _273  and  _275
REMARK  116  A    between atoms: _275  and  _276
REMARK  117  A    between atoms: _275  and  _278
REMARK  118  A    between atoms: _278  and  _279
REMARK  119  A    between atoms: _284  and  _285
REMARK                            x       y       z     vdW  Elec       q    Type
REMARK                         _______ _______ _______ _____ _____    ______ ____
ROOT
ATOM      1  O   HOH     1      32.266  17.599   9.393  0.00  0.00    +0.000 OA
ENDROOT
TORSDOF 0
REMARK  Name = ../refined-set-2016/1tni/1tni_pocket.pdb
REMARK  119 active torsions:
REMARK  status: ('A' for Active; 'I' for Inactive)
REMARK    1  A    between atoms: _1  and  _5
REMARK    2  A    between atoms: _5  and  _6
REMARK    3  A    between atoms: _5  and  _8
REMARK    4  A    between atoms: _8  and  _9
REMARK    5  A    between atoms: _12  and  _14
REMARK    6  A    between atoms: _14  and  _15
REMARK    7  A    between atoms: _14  and  _17
REMARK    8  A    between atoms: _20  and  _22
REMARK    9  A    between atoms: _22  and  _23
REMARK   10  A    between atoms: _22  and  _25
REMARK   11  A    between atoms: _25  and  _26
REMARK   12  A    between atoms: _31  and  _33
REMARK   13  A    between atoms: _33  and  _34
REMARK   14  A    between atoms: _33  and  _36
REMARK   15  A    between atoms: _36  and  _37
REMARK   16  A    between atoms: _42  and  _44
REMARK   17  A    between atoms: _44  and  _45
REMARK   18  A    between atoms: _44  and  _47
REMARK   19  A    between atoms: _47  and  _48
REMARK   20  A    between atoms: _48  and  _49
REMARK   21  A    between atoms: _49  and  _50
REMARK   22  A    between atoms: _50  and  _51
REMARK   23  A    between atoms: _55  and  _57
REMARK   24  A    between atoms: _57  and  _58
REMARK   25  A    between atoms: _57  and  _60
REMARK   26  A    between atoms: _60  and  _61
REMARK   27  A    between atoms: _66  and  _67
REMARK   28  A    between atoms: _69  and  _71
REMARK   29  A    between atoms: _71  and  _72
REMARK   30  A    between atoms: _71  and  _74
REMARK   31  A    between atoms: _74  and  _75
REMARK   32  A    between atoms: _80  and  _81
REMARK   33  A    between atoms: _83  and  _85
REMARK   34  A    between atoms: _85  and  _86
REMARK   35  A    between atoms: _89  and  _91
REMARK   36  A    between atoms: _91  and  _92
REMARK   37  A    between atoms: _91  and  _94
REMARK   38  A    between atoms: _94  and  _95
REMARK   39  A    between atoms: _95  and  _96
REMARK   40  A    between atoms: _96  and  _97
REMARK   41  A    between atoms: _97  and  _98
REMARK   42  A    between atoms: _102  and  _104
REMARK   43  A    between atoms: _104  and  _105
REMARK   44  A    between atoms: _104  and  _107
REMARK   45  A    between atoms: _107  and  _108
REMARK   46  A    between atoms: _111  and  _113
REMARK   47  A    between atoms: _113  and  _114
REMARK   48  A    between atoms: _113  and  _116
REMARK   49  A    between atoms: _116  and  _117
REMARK   50  A    between atoms: _119  and  _121
REMARK   51  A    between atoms: _121  and  _122
REMARK   52  A    between atoms: _121  and  _124
REMARK   53  A    between atoms: _124  and  _125
REMARK   54  A    between atoms: _125  and  _221
REMARK   55  A    between atoms: _126  and  _128
REMARK   56  A    between atoms: _128  and  _129
REMARK   57  A    between atoms: _128  and  _131
REMARK   58  A    between atoms: _131  and  _132
REMARK   59  A    between atoms: _132  and  _133
REMARK   60  A    between atoms: _138  and  _140
REMARK   61  A    between atoms: _140  and  _141
REMARK   62  A    between atoms: _143  and  _145
REMARK   63  A    between atoms: _145  and  _146
REMARK   64  A    between atoms: _145  and  _148
REMARK   65  A    between atoms: _148  and  _149
REMARK   66  A    between atoms: _152  and  _154
REMARK   67  A    between atoms: _154  and  _155
REMARK   68  A    between atoms: _154  and  _157
REMARK   69  A    between atoms: _157  and  _158
REMARK   70  A    between atoms: _160  and  _162
REMARK   71  A    between atoms: _162  and  _163
REMARK   72  A    between atoms: _165  and  _167
REMARK   73  A    between atoms: _167  and  _168
REMARK   74  A    between atoms: _167  and  _170
REMARK   75  A    between atoms: _173  and  _175
REMARK   76  A    between atoms: _175  and  _176
REMARK   77  A    between atoms: _175  and  _178
REMARK   78  A    between atoms: _178  and  _179
REMARK   79  A    between atoms: _181  and  _183
REMARK   80  A    between atoms: _183  and  _184
REMARK   81  A    between atoms: _183  and  _186
REMARK   82  A    between atoms: _186  and  _187
REMARK   83  A    between atoms: _197  and  _199
REMARK   84  A    between atoms: _199  and  _200
REMARK   85  A    between atoms: _202  and  _204
REMARK   86  A    between atoms: _204  and  _205
REMARK   87  A    between atoms: _204  and  _207
REMARK   88  A    between atoms: _207  and  _208
REMARK   89  A    between atoms: _210  and  _212
REMARK   90  A    between atoms: _212  and  _213
REMARK   91  A    between atoms: _215  and  _217
REMARK   92  A    between atoms: _217  and  _218
REMARK   93  A    between atoms: _217  and  _220
REMARK   94  A    between atoms: _220  and  _221
REMARK   95  A    between atoms: _222  and  _224
REMARK   96  A    between atoms: _224  and  _225
REMARK   97  A    between atoms: _228  and  _230
REMARK   98  A    between atoms: _230  and  _231
REMARK   99  A    between atoms: _230  and  _233
REMARK  100  A    between atoms: _233  and  _234
REMARK  101  A    between atoms: _234  and  _235
REMARK  102  A    between atoms: _240  and  _242
REMARK  103  A    between atoms: _242  and  _243
REMARK  104  A    between atoms: _242  and  _245
REMARK  105  A    between atoms: _245  and  _246
REMARK  106  A    between atoms: _246  and  _247
REMARK  107  A    between atoms: _247  and  _248
REMARK  108  A    between atoms: _248  and  _249
REMARK  109  A    between atoms: _254  and  _255
REMARK  110  A    between atoms: _260  and  _262
REMARK  111  A    between atoms: _262  and  _263
REMARK  112  A    between atoms: _265  and  _267
REMARK  113  A    between atoms: _267  and  _268
REMARK  114  A    between atoms: _267  and  _270
REMARK  115  A    between atoms: _273  and  _275
REMARK  116  A    between atoms: _275  and  _276
REMARK  117  A    between atoms: _275  and  _278
REMARK  118  A    between atoms: _278  and  _279
REMARK  119  A    between atoms: _284  and  _285
REMARK                            x       y       z     vdW  Elec       q    Type
REMARK                         _______ _______ _______ _____ _____    ______ ____
ROOT
ATOM      1  O   HOH     1      31.259  20.492  10.000  0.00  0.00    +0.000 OA
ENDROOT
TORSDOF 0
REMARK  Name = ../refined-set-2016/1tni/1tni_pocket.pdb
REMARK  119 active torsions:
REMARK  status: ('A' for Active; 'I' for Inactive)
REMARK    1  A    between atoms: _1  and  _5
REMARK    2  A    between atoms: _5  and  _6
REMARK    3  A    between atoms: _5  and  _8
REMARK    4  A    between atoms: _8  and  _9
REMARK    5  A    between atoms: _12  and  _14
REMARK    6  A    between atoms: _14  and  _15
REMARK    7  A    between atoms: _14  and  _17
REMARK    8  A    between atoms: _20  and  _22
REMARK    9  A    between atoms: _22  and  _23
REMARK   10  A    between atoms: _22  and  _25
REMARK   11  A    between atoms: _25  and  _26
REMARK   12  A    between atoms: _31  and  _33
REMARK   13  A    between atoms: _33  and  _34
REMARK   14  A    between atoms: _33  and  _36
REMARK   15  A    between atoms: _36  and  _37
REMARK   16  A    between atoms: _42  and  _44
REMARK   17  A    between atoms: _44  and  _45
REMARK   18  A    between atoms: _44  and  _47
REMARK   19  A    between atoms: _47  and  _48
REMARK   20  A    between atoms: _48  and  _49
REMARK   21  A    between atoms: _49  and  _50
REMARK   22  A    between atoms: _50  and  _51
REMARK   23  A    between atoms: _55  and  _57
REMARK   24  A    between atoms: _57  and  _58
REMARK   25  A    between atoms: _57  and  _60
REMARK   26  A    between atoms: _60  and  _61
REMARK   27  A    between atoms: _66  and  _67
REMARK   28  A    between atoms: _69  and  _71
REMARK   29  A    between atoms: _71  and  _72
REMARK   30  A    between atoms: _71  and  _74
REMARK   31  A    between atoms: _74  and  _75
REMARK   32  A    between atoms: _80  and  _81
REMARK   33  A    between atoms: _83  and  _85
REMARK   34  A    between atoms: _85  and  _86
REMARK   35  A    between atoms: _89  and  _91
REMARK   36  A    between atoms: _91  and  _92
REMARK   37  A    between atoms: _91  and  _94
REMARK   38  A    between atoms: _94  and  _95
REMARK   39  A    between atoms: _95  and  _96
REMARK   40  A    between atoms: _96  and  _97
REMARK   41  A    between atoms: _97  and  _98
REMARK   42  A    between atoms: _102  and  _104
REMARK   43  A    between atoms: _104  and  _105
REMARK   44  A    between atoms: _104  and  _107
REMARK   45  A    between atoms: _107  and  _108
REMARK   46  A    between atoms: _111  and  _113
REMARK   47  A    between atoms: _113  and  _114
REMARK   48  A    between atoms: _113  and  _116
REMARK   49  A    between atoms: _116  and  _117
REMARK   50  A    between atoms: _119  and  _121
REMARK   51  A    between atoms: _121  and  _122
REMARK   52  A    between atoms: _121  and  _124
REMARK   53  A    between atoms: _124  and  _125
REMARK   54  A    between atoms: _125  and  _221
REMARK   55  A    between atoms: _126  and  _128
REMARK   56  A    between atoms: _128  and  _129
REMARK   57  A    between atoms: _128  and  _131
REMARK   58  A    between atoms: _131  and  _132
REMARK   59  A    between atoms: _132  and  _133
REMARK   60  A    between atoms: _138  and  _140
REMARK   61  A    between atoms: _140  and  _141
REMARK   62  A    between atoms: _143  and  _145
REMARK   63  A    between atoms: _145  and  _146
REMARK   64  A    between atoms: _145  and  _148
REMARK   65  A    between atoms: _148  and  _149
REMARK   66  A    between atoms: _152  and  _154
REMARK   67  A    between atoms: _154  and  _155
REMARK   68  A    between atoms: _154  and  _157
REMARK   69  A    between atoms: _157  and  _158
REMARK   70  A    between atoms: _160  and  _162
REMARK   71  A    between atoms: _162  and  _163
REMARK   72  A    between atoms: _165  and  _167
REMARK   73  A    between atoms: _167  and  _168
REMARK   74  A    between atoms: _167  and  _170
REMARK   75  A    between atoms: _173  and  _175
REMARK   76  A    between atoms: _175  and  _176
REMARK   77  A    between atoms: _175  and  _178
REMARK   78  A    between atoms: _178  and  _179
REMARK   79  A    between atoms: _181  and  _183
REMARK   80  A    between atoms: _183  and  _184
REMARK   81  A    between atoms: _183  and  _186
REMARK   82  A    between atoms: _186  and  _187
REMARK   83  A    between atoms: _197  and  _199
REMARK   84  A    between atoms: _199  and  _200
REMARK   85  A    between atoms: _202  and  _204
REMARK   86  A    between atoms: _204  and  _205
REMARK   87  A    between atoms: _204  and  _207
REMARK   88  A    between atoms: _207  and  _208
REMARK   89  A    between atoms: _210  and  _212
REMARK   90  A    between atoms: _212  and  _213
REMARK   91  A    between atoms: _215  and  _217
REMARK   92  A    between atoms: _217  and  _218
REMARK   93  A    between atoms: _217  and  _220
REMARK   94  A    between atoms: _220  and  _221
REMARK   95  A    between atoms: _222  and  _224
REMARK   96  A    between atoms: _224  and  _225
REMARK   97  A    between atoms: _228  and  _230
REMARK   98  A    between atoms: _230  and  _231
REMARK   99  A    between atoms: _230  and  _233
REMARK  100  A    between atoms: _233  and  _234
REMARK  101  A    between atoms: _234  and  _235
REMARK  102  A    between atoms: _240  and  _242
REMARK  103  A    between atoms: _242  and  _243
REMARK  104  A    between atoms: _242  and  _245
REMARK  105  A    between atoms: _245  and  _246
REMARK  106  A    between atoms: _246  and  _247
REMARK  107  A    between atoms: _247  and  _248
REMARK  108  A    between atoms: _248  and  _249
REMARK  109  A    between atoms: _254  and  _255
REMARK  110  A    between atoms: _260  and  _262
REMARK  111  A    between atoms: _262  and  _263
REMARK  112  A    between atoms: _265  and  _267
REMARK  113  A    between atoms: _267  and  _268
REMARK  114  A    between atoms: _267  and  _270
REMARK  115  A    between atoms: _273  and  _275
REMARK  116  A    between atoms: _275  and  _276
REMARK  117  A    between atoms: _275  and  _278
REMARK  118  A    between atoms: _278  and  _279
REMARK  119  A    between atoms: _284  and  _285
REMARK                            x       y       z     vdW  Elec       q    Type
REMARK                         _______ _______ _______ _____ _____    ______ ____
ROOT
ATOM      1  O   HOH     1      35.315  10.952  19.515  0.00  0.00    +0.000 OA
ENDROOT
TORSDOF 0
REMARK  Name = ../refined-set-2016/1tni/1tni_pocket.pdb
REMARK  119 active torsions:
REMARK  status: ('A' for Active; 'I' for Inactive)
REMARK    1  A    between atoms: _1  and  _5
REMARK    2  A    between atoms: _5  and  _6
REMARK    3  A    between atoms: _5  and  _8
REMARK    4  A    between atoms: _8  and  _9
REMARK    5  A    between atoms: _12  and  _14
REMARK    6  A    between atoms: _14  and  _15
REMARK    7  A    between atoms: _14  and  _17
REMARK    8  A    between atoms: _20  and  _22
REMARK    9  A    between atoms: _22  and  _23
REMARK   10  A    between atoms: _22  and  _25
REMARK   11  A    between atoms: _25  and  _26
REMARK   12  A    between atoms: _31  and  _33
REMARK   13  A    between atoms: _33  and  _34
REMARK   14  A    between atoms: _33  and  _36
REMARK   15  A    between atoms: _36  and  _37
REMARK   16  A    between atoms: _42  and  _44
REMARK   17  A    between atoms: _44  and  _45
REMARK   18  A    between atoms: _44  and  _47
REMARK   19  A    between atoms: _47  and  _48
REMARK   20  A    between atoms: _48  and  _49
REMARK   21  A    between atoms: _49  and  _50
REMARK   22  A    between atoms: _50  and  _51
REMARK   23  A    between atoms: _55  and  _57
REMARK   24  A    between atoms: _57  and  _58
REMARK   25  A    between atoms: _57  and  _60
REMARK   26  A    between atoms: _60  and  _61
REMARK   27  A    between atoms: _66  and  _67
REMARK   28  A    between atoms: _69  and  _71
REMARK   29  A    between atoms: _71  and  _72
REMARK   30  A    between atoms: _71  and  _74
REMARK   31  A    between atoms: _74  and  _75
REMARK   32  A    between atoms: _80  and  _81
REMARK   33  A    between atoms: _83  and  _85
REMARK   34  A    between atoms: _85  and  _86
REMARK   35  A    between atoms: _89  and  _91
REMARK   36  A    between atoms: _91  and  _92
REMARK   37  A    between atoms: _91  and  _94
REMARK   38  A    between atoms: _94  and  _95
REMARK   39  A    between atoms: _95  and  _96
REMARK   40  A    between atoms: _96  and  _97
REMARK   41  A    between atoms: _97  and  _98
REMARK   42  A    between atoms: _102  and  _104
REMARK   43  A    between atoms: _104  and  _105
REMARK   44  A    between atoms: _104  and  _107
REMARK   45  A    between atoms: _107  and  _108
REMARK   46  A    between atoms: _111  and  _113
REMARK   47  A    between atoms: _113  and  _114
REMARK   48  A    between atoms: _113  and  _116
REMARK   49  A    between atoms: _116  and  _117
REMARK   50  A    between atoms: _119  and  _121
REMARK   51  A    between atoms: _121  and  _122
REMARK   52  A    between atoms: _121  and  _124
REMARK   53  A    between atoms: _124  and  _125
REMARK   54  A    between atoms: _125  and  _221
REMARK   55  A    between atoms: _126  and  _128
REMARK   56  A    between atoms: _128  and  _129
REMARK   57  A    between atoms: _128  and  _131
REMARK   58  A    between atoms: _131  and  _132
REMARK   59  A    between atoms: _132  and  _133
REMARK   60  A    between atoms: _138  and  _140
REMARK   61  A    between atoms: _140  and  _141
REMARK   62  A    between atoms: _143  and  _145
REMARK   63  A    between atoms: _145  and  _146
REMARK   64  A    between atoms: _145  and  _148
REMARK   65  A    between atoms: _148  and  _149
REMARK   66  A    between atoms: _152  and  _154
REMARK   67  A    between atoms: _154  and  _155
REMARK   68  A    between atoms: _154  and  _157
REMARK   69  A    between atoms: _157  and  _158
REMARK   70  A    between atoms: _160  and  _162
REMARK   71  A    between atoms: _162  and  _163
REMARK   72  A    between atoms: _165  and  _167
REMARK   73  A    between atoms: _167  and  _168
REMARK   74  A    between atoms: _167  and  _170
REMARK   75  A    between atoms: _173  and  _175
REMARK   76  A    between atoms: _175  and  _176
REMARK   77  A    between atoms: _175  and  _178
REMARK   78  A    between atoms: _178  and  _179
REMARK   79  A    between atoms: _181  and  _183
REMARK   80  A    between atoms: _183  and  _184
REMARK   81  A    between atoms: _183  and  _186
REMARK   82  A    between atoms: _186  and  _187
REMARK   83  A    between atoms: _197  and  _199
REMARK   84  A    between atoms: _199  and  _200
REMARK   85  A    between atoms: _202  and  _204
REMARK   86  A    between atoms: _204  and  _205
REMARK   87  A    between atoms: _204  and  _207
REMARK   88  A    between atoms: _207  and  _208
REMARK   89  A    between atoms: _210  and  _212
REMARK   90  A    between atoms: _212  and  _213
REMARK   91  A    between atoms: _215  and  _217
REMARK   92  A    between atoms: _217  and  _218
REMARK   93  A    between atoms: _217  and  _220
REMARK   94  A    between atoms: _220  and  _221
REMARK   95  A    between atoms: _222  and  _224
REMARK   96  A    between atoms: _224  and  _225
REMARK   97  A    between atoms: _228  and  _230
REMARK   98  A    between atoms: _230  and  _231
REMARK   99  A    between atoms: _230  and  _233
REMARK  100  A    between atoms: _233  and  _234
REMARK  101  A    between atoms: _234  and  _235
REMARK  102  A    between atoms: _240  and  _242
REMARK  103  A    between atoms: _242  and  _243
REMARK  104  A    between atoms: _242  and  _245
REMARK  105  A    between atoms: _245  and  _246
REMARK  106  A    between atoms: _246  and  _247
REMARK  107  A    between atoms: _247  and  _248
REMARK  108  A    between atoms: _248  and  _249
REMARK  109  A    between atoms: _254  and  _255
REMARK  110  A    between atoms: _260  and  _262
REMARK  111  A    between atoms: _262  and  _263
REMARK  112  A    between atoms: _265  and  _267
REMARK  113  A    between atoms: _267  and  _268
REMARK  114  A    between atoms: _267  and  _270
REMARK  115  A    between atoms: _273  and  _275
REMARK  116  A    between atoms: _275  and  _276
REMARK  117  A    between atoms: _275  and  _278
REMARK  118  A    between atoms: _278  and  _279
REMARK  119  A    between atoms: _284  and  _285
REMARK                            x       y       z     vdW  Elec       q    Type
REMARK                         _______ _______ _______ _____ _____    ______ ____
ROOT
ATOM      1  O   HOH     1      25.298  11.364  19.453  0.00  0.00    +0.000 OA
ENDROOT
TORSDOF 0
REMARK  Name = ../refined-set-2016/1tni/1tni_pocket.pdb
REMARK  119 active torsions:
REMARK  status: ('A' for Active; 'I' for Inactive)
REMARK    1  A    between atoms: _1  and  _5
REMARK    2  A    between atoms: _5  and  _6
REMARK    3  A    between atoms: _5  and  _8
REMARK    4  A    between atoms: _8  and  _9
REMARK    5  A    between atoms: _12  and  _14
REMARK    6  A    between atoms: _14  and  _15
REMARK    7  A    between atoms: _14  and  _17
REMARK    8  A    between atoms: _20  and  _22
REMARK    9  A    between atoms: _22  and  _23
REMARK   10  A    between atoms: _22  and  _25
REMARK   11  A    between atoms: _25  and  _26
REMARK   12  A    between atoms: _31  and  _33
REMARK   13  A    between atoms: _33  and  _34
REMARK   14  A    between atoms: _33  and  _36
REMARK   15  A    between atoms: _36  and  _37
REMARK   16  A    between atoms: _42  and  _44
REMARK   17  A    between atoms: _44  and  _45
REMARK   18  A    between atoms: _44  and  _47
REMARK   19  A    between atoms: _47  and  _48
REMARK   20  A    between atoms: _48  and  _49
REMARK   21  A    between atoms: _49  and  _50
REMARK   22  A    between atoms: _50  and  _51
REMARK   23  A    between atoms: _55  and  _57
REMARK   24  A    between atoms: _57  and  _58
REMARK   25  A    between atoms: _57  and  _60
REMARK   26  A    between atoms: _60  and  _61
REMARK   27  A    between atoms: _66  and  _67
REMARK   28  A    between atoms: _69  and  _71
REMARK   29  A    between atoms: _71  and  _72
REMARK   30  A    between atoms: _71  and  _74
REMARK   31  A    between atoms: _74  and  _75
REMARK   32  A    between atoms: _80  and  _81
REMARK   33  A    between atoms: _83  and  _85
REMARK   34  A    between atoms: _85  and  _86
REMARK   35  A    between atoms: _89  and  _91
REMARK   36  A    between atoms: _91  and  _92
REMARK   37  A    between atoms: _91  and  _94
REMARK   38  A    between atoms: _94  and  _95
REMARK   39  A    between atoms: _95  and  _96
REMARK   40  A    between atoms: _96  and  _97
REMARK   41  A    between atoms: _97  and  _98
REMARK   42  A    between atoms: _102  and  _104
REMARK   43  A    between atoms: _104  and  _105
REMARK   44  A    between atoms: _104  and  _107
REMARK   45  A    between atoms: _107  and  _108
REMARK   46  A    between atoms: _111  and  _113
REMARK   47  A    between atoms: _113  and  _114
REMARK   48  A    between atoms: _113  and  _116
REMARK   49  A    between atoms: _116  and  _117
REMARK   50  A    between atoms: _119  and  _121
REMARK   51  A    between atoms: _121  and  _122
REMARK   52  A    between atoms: _121  and  _124
REMARK   53  A    between atoms: _124  and  _125
REMARK   54  A    between atoms: _125  and  _221
REMARK   55  A    between atoms: _126  and  _128
REMARK   56  A    between atoms: _128  and  _129
REMARK   57  A    between atoms: _128  and  _131
REMARK   58  A    between atoms: _131  and  _132
REMARK   59  A    between atoms: _132  and  _133
REMARK   60  A    between atoms: _138  and  _140
REMARK   61  A    between atoms: _140  and  _141
REMARK   62  A    between atoms: _143  and  _145
REMARK   63  A    between atoms: _145  and  _146
REMARK   64  A    between atoms: _145  and  _148
REMARK   65  A    between atoms: _148  and  _149
REMARK   66  A    between atoms: _152  and  _154
REMARK   67  A    between atoms: _154  and  _155
REMARK   68  A    between atoms: _154  and  _157
REMARK   69  A    between atoms: _157  and  _158
REMARK   70  A    between atoms: _160  and  _162
REMARK   71  A    between atoms: _162  and  _163
REMARK   72  A    between atoms: _165  and  _167
REMARK   73  A    between atoms: _167  and  _168
REMARK   74  A    between atoms: _167  and  _170
REMARK   75  A    between atoms: _173  and  _175
REMARK   76  A    between atoms: _175  and  _176
REMARK   77  A    between atoms: _175  and  _178
REMARK   78  A    between atoms: _178  and  _179
REMARK   79  A    between atoms: _181  and  _183
REMARK   80  A    between atoms: _183  and  _184
REMARK   81  A    between atoms: _183  and  _186
REMARK   82  A    between atoms: _186  and  _187
REMARK   83  A    between atoms: _197  and  _199
REMARK   84  A    between atoms: _199  and  _200
REMARK   85  A    between atoms: _202  and  _204
REMARK   86  A    between atoms: _204  and  _205
REMARK   87  A    between atoms: _204  and  _207
REMARK   88  A    between atoms: _207  and  _208
REMARK   89  A    between atoms: _210  and  _212
REMARK   90  A    between atoms: _212  and  _213
REMARK   91  A    between atoms: _215  and  _217
REMARK   92  A    between atoms: _217  and  _218
REMARK   93  A    between atoms: _217  and  _220
REMARK   94  A    between atoms: _220  and  _221
REMARK   95  A    between atoms: _222  and  _224
REMARK   96  A    between atoms: _224  and  _225
REMARK   97  A    between atoms: _228  and  _230
REMARK   98  A    between atoms: _230  and  _231
REMARK   99  A    between atoms: _230  and  _233
REMARK  100  A    between atoms: _233  and  _234
REMARK  101  A    between atoms: _234  and  _235
REMARK  102  A    between atoms: _240  and  _242
REMARK  103  A    between atoms: _242  and  _243
REMARK  104  A    between atoms: _242  and  _245
REMARK  105  A    between atoms: _245  and  _246
REMARK  106  A    between atoms: _246  and  _247
REMARK  107  A    between atoms: _247  and  _248
REMARK  108  A    between atoms: _248  and  _249
REMARK  109  A    between atoms: _254  and  _255
REMARK  110  A    between atoms: _260  and  _262
REMARK  111  A    between atoms: _262  and  _263
REMARK  112  A    between atoms: _265  and  _267
REMARK  113  A    between atoms: _267  and  _268
REMARK  114  A    between atoms: _267  and  _270
REMARK  115  A    between atoms: _273  and  _275
REMARK  116  A    between atoms: _275  and  _276
REMARK  117  A    between atoms: _275  and  _278
REMARK  118  A    between atoms: _278  and  _279
REMARK  119  A    between atoms: _284  and  _285
REMARK                            x       y       z     vdW  Elec       q    Type
REMARK                         _______ _______ _______ _____ _____    ______ ____
ROOT
ATOM      1  O   HOH     1      26.240   8.316  12.423  0.00  0.00    +0.000 OA
ENDROOT
TORSDOF 0
