REMARK  Name = ../refined-set-2016/4bc5/4bc5_pocket.pdb
REMARK  121 active torsions:
REMARK  status: ('A' for Active; 'I' for Inactive)
REMARK    1  A    between atoms: _1  and  _3
REMARK    2  A    between atoms: _3  and  _4
REMARK    3  A    between atoms: _3  and  _6
REMARK    4  A    between atoms: _6  and  _7
REMARK    5  A    between atoms: _10  and  _12
REMARK    6  A    between atoms: _12  and  _13
REMARK    7  A    between atoms: _12  and  _15
REMARK    8  A    between atoms: _15  and  _16
REMARK    9  A    between atoms: _22  and  _24
REMARK   10  A    between atoms: _24  and  _25
REMARK   11  A    between atoms: _24  and  _27
REMARK   12  A    between atoms: _27  and  _28
REMARK   13  A    between atoms: _30  and  _32
REMARK   14  A    between atoms: _32  and  _33
REMARK   15  A    between atoms: _32  and  _35
REMARK   16  A    between atoms: _35  and  _36
REMARK   17  A    between atoms: _39  and  _41
REMARK   18  A    between atoms: _41  and  _42
REMARK   19  A    between atoms: _41  and  _44
REMARK   20  A    between atoms: _44  and  _45
REMARK   21  A    between atoms: _45  and  _46
REMARK   22  A    between atoms: _51  and  _53
REMARK   23  A    between atoms: _53  and  _54
REMARK   24  A    between atoms: _56  and  _58
REMARK   25  A    between atoms: _58  and  _59
REMARK   26  A    between atoms: _58  and  _61
REMARK   27  A    between atoms: _61  and  _62
REMARK   28  A    between atoms: _62  and  _63
REMARK   29  A    between atoms: _68  and  _70
REMARK   30  A    between atoms: _70  and  _71
REMARK   31  A    between atoms: _70  and  _73
REMARK   32  A    between atoms: _73  and  _74
REMARK   33  A    between atoms: _74  and  _75
REMARK   34  A    between atoms: _80  and  _82
REMARK   35  A    between atoms: _82  and  _83
REMARK   36  A    between atoms: _82  and  _85
REMARK   37  A    between atoms: _85  and  _86
REMARK   38  A    between atoms: _91  and  _93
REMARK   39  A    between atoms: _93  and  _94
REMARK   40  A    between atoms: _96  and  _98
REMARK   41  A    between atoms: _98  and  _99
REMARK   42  A    between atoms: _98  and  _101
REMARK   43  A    between atoms: _104  and  _106
REMARK   44  A    between atoms: _106  and  _107
REMARK   45  A    between atoms: _106  and  _109
REMARK   46  A    between atoms: _109  and  _110
REMARK   47  A    between atoms: _120  and  _122
REMARK   48  A    between atoms: _122  and  _123
REMARK   49  A    between atoms: _122  and  _125
REMARK   50  A    between atoms: _125  and  _126
REMARK   51  A    between atoms: _126  and  _127
REMARK   52  A    between atoms: _129  and  _131
REMARK   53  A    between atoms: _131  and  _132
REMARK   54  A    between atoms: _131  and  _134
REMARK   55  A    between atoms: _134  and  _135
REMARK   56  A    between atoms: _138  and  _140
REMARK   57  A    between atoms: _140  and  _141
REMARK   58  A    between atoms: _140  and  _143
REMARK   59  A    between atoms: _143  and  _144
REMARK   60  A    between atoms: _146  and  _148
REMARK   61  A    between atoms: _148  and  _149
REMARK   62  A    between atoms: _148  and  _151
REMARK   63  A    between atoms: _151  and  _152
REMARK   64  A    between atoms: _157  and  _158
REMARK   65  A    between atoms: _160  and  _162
REMARK   66  A    between atoms: _162  and  _163
REMARK   67  A    between atoms: _162  and  _165
REMARK   68  A    between atoms: _165  and  _166
REMARK   69  A    between atoms: _166  and  _167
REMARK   70  A    between atoms: _167  and  _168
REMARK   71  A    between atoms: _177  and  _179
REMARK   72  A    between atoms: _179  and  _180
REMARK   73  A    between atoms: _179  and  _182
REMARK   74  A    between atoms: _182  and  _183
REMARK   75  A    between atoms: _189  and  _191
REMARK   76  A    between atoms: _191  and  _192
REMARK   77  A    between atoms: _191  and  _194
REMARK   78  A    between atoms: _197  and  _199
REMARK   79  A    between atoms: _199  and  _200
REMARK   80  A    between atoms: _199  and  _202
REMARK   81  A    between atoms: _202  and  _203
REMARK   82  A    between atoms: _206  and  _208
REMARK   83  A    between atoms: _208  and  _209
REMARK   84  A    between atoms: _211  and  _213
REMARK   85  A    between atoms: _213  and  _214
REMARK   86  A    between atoms: _216  and  _218
REMARK   87  A    between atoms: _218  and  _219
REMARK   88  A    between atoms: _218  and  _221
REMARK   89  A    between atoms: _221  and  _222
REMARK   90  A    between atoms: _225  and  _227
REMARK   91  A    between atoms: _227  and  _228
REMARK   92  A    between atoms: _227  and  _230
REMARK   93  A    between atoms: _230  and  _231
REMARK   94  A    between atoms: _237  and  _238
REMARK   95  A    between atoms: _243  and  _245
REMARK   96  A    between atoms: _245  and  _246
REMARK   97  A    between atoms: _245  and  _248
REMARK   98  A    between atoms: _248  and  _249
REMARK   99  A    between atoms: _251  and  _253
REMARK  100  A    between atoms: _253  and  _254
REMARK  101  A    between atoms: _253  and  _256
REMARK  102  A    between atoms: _256  and  _257
REMARK  103  A    between atoms: _260  and  _262
REMARK  104  A    between atoms: _262  and  _263
REMARK  105  A    between atoms: _262  and  _265
REMARK  106  A    between atoms: _265  and  _266
REMARK  107  A    between atoms: _272  and  _274
REMARK  108  A    between atoms: _274  and  _275
REMARK  109  A    between atoms: _274  and  _277
REMARK  110  A    between atoms: _277  and  _278
REMARK  111  A    between atoms: _283  and  _285
REMARK  112  A    between atoms: _285  and  _286
REMARK  113  A    between atoms: _285  and  _288
REMARK  114  A    between atoms: _288  and  _289
REMARK  115  A    between atoms: _295  and  _297
REMARK  116  A    between atoms: _297  and  _298
REMARK  117  A    between atoms: _297  and  _300
REMARK  118  A    between atoms: _300  and  _301
REMARK  119  A    between atoms: _304  and  _306
REMARK  120  A    between atoms: _306  and  _307
REMARK  121  A    between atoms: _306  and  _309
REMARK                            x       y       z     vdW  Elec       q    Type
REMARK                         _______ _______ _______ _____ _____    ______ ____
ROOT
ATOM      1  CA  SER A   3      20.527  -9.131  25.218  0.00  0.00    +0.178 C 
ENDROOT
BRANCH   1   3
ATOM      2  C   PHE A   2      21.691  -8.125  23.269  0.00  0.00    +0.241 C 
ATOM      3  N   SER A   3      21.297  -9.188  23.982  0.00  0.00    -0.295 N 
ATOM      4  H   SER A   3      21.561 -10.129  23.625  0.00  0.00    +0.150 HD
ATOM      5  O   PHE A   2      21.515  -6.946  23.615  0.00  0.00    -0.273 OA
BRANCH   2   6
ATOM      6  CA  PHE A   2      22.356  -8.467  21.914  0.00  0.00    +0.153 C 
BRANCH   6   9
ATOM      7  C   ASP A   1      20.626  -9.651  20.641  0.00  0.00    +0.239 C 
ATOM      8  O   ASP A   1      20.926 -10.748  21.129  0.00  0.00    -0.274 OA
ATOM      9  N   PHE A   2      21.275  -8.521  20.918  0.00  0.00    -0.297 N 
ATOM     10  H   PHE A   2      21.009  -7.651  20.415  0.00  0.00    +0.150 HD
BRANCH   7  11
ATOM     11  CA  ASP A   1      19.463  -9.508  19.686  0.00  0.00    +0.156 C 
BRANCH  11  12
ATOM     12  N   ASP A   1      19.807 -10.042  18.371  0.00  0.00    -0.238 NA
ATOM     13  H   ASP A   1      20.354 -10.925  18.315  0.00  0.00    +0.142 HD
ENDBRANCH  11  12
BRANCH  11  14
ATOM     14  CB  ASP A   1      18.162 -10.116  20.231  0.00  0.00    +0.140 C 
BRANCH  14  15
ATOM     15  CG  ASP A   1      17.648  -9.532  21.534  0.00  0.00    +0.367 C 
ATOM     16  OD2 ASP A   1      16.774 -10.175  22.149  0.00  0.00    -0.246 OA
ATOM     17  OD1 ASP A   1      18.049  -8.360  21.890  0.00  0.00    -0.246 OA
ENDBRANCH  14  15
ENDBRANCH  11  14
ENDBRANCH   7  11
ENDBRANCH   6   9
BRANCH   6  18
ATOM     18  CB  PHE A   2      23.402  -7.421  21.525  0.00  0.00    +0.055 C 
BRANCH  18  19
ATOM     19  CG  PHE A   2      24.289  -7.914  20.403  0.00  0.00    -0.020 A 
ATOM     20  CD2 PHE A   2      25.611  -8.233  20.636  0.00  0.00    -0.004 A 
ATOM     21  CE2 PHE A   2      26.433  -8.701  19.604  0.00  0.00    -0.000 A 
ATOM     22  CZ  PHE A   2      25.923  -8.855  18.340  0.00  0.00    -0.000 A 
ATOM     23  CE1 PHE A   2      24.607  -8.548  18.091  0.00  0.00    -0.000 A 
ATOM     24  CD1 PHE A   2      23.788  -8.081  19.122  0.00  0.00    -0.004 A 
ENDBRANCH  18  19
ENDBRANCH   6  18
ENDBRANCH   2   6
ENDBRANCH   1   3
BRANCH   1  25
ATOM     25  C   SER A   3      21.410  -9.273  26.472  0.00  0.00    +0.243 C 
ATOM     26  N   THR A   4      20.805  -9.112  27.635  0.00  0.00    -0.295 N 
ATOM     27  H   THR A   4      19.779  -8.942  27.638  0.00  0.00    +0.150 HD
ATOM     28  O   SER A   3      22.603  -9.486  26.378  0.00  0.00    -0.273 OA
BRANCH  26  29
ATOM     29  CA  THR A   4      21.497  -9.160  28.908  0.00  0.00    +0.176 C 
BRANCH  29  30
ATOM     30  C   THR A   4      22.168 -10.465  29.172  0.00  0.00    +0.243 C 
ATOM     31  O   THR A   4      23.296 -10.474  29.626  0.00  0.00    -0.273 OA
ATOM     32  N   GLN A   5      21.466 -11.543  28.903  0.00  0.00    -0.298 N 
ATOM     33  H   GLN A   5      20.538 -11.420  28.450  0.00  0.00    +0.150 HD
BRANCH  32  34
ATOM     34  CA  GLN A   5      21.906 -12.896  29.199  0.00  0.00    +0.137 C 
BRANCH  34  35
ATOM     35  C   GLN A   5      22.441 -13.668  28.017  0.00  0.00    +0.227 C 
ATOM     36  O   GLN A   5      23.075 -14.715  28.217  0.00  0.00    -0.286 OA
ENDBRANCH  34  35
BRANCH  34  37
ATOM     37  CB  GLN A   5      20.725 -13.675  29.785  0.00  0.00    +0.037 C 
BRANCH  37  38
ATOM     38  CG  GLN A   5      20.160 -12.994  31.051  0.00  0.00    +0.087 C 
BRANCH  38  39
ATOM     39  CD  GLN A   5      19.145 -13.824  31.795  0.00  0.00    +0.219 C 
ATOM     40  NE2 GLN A   5      18.524 -13.235  32.781  0.00  0.00    -0.329 N 
ATOM     41 HE21 GLN A   5      17.853 -13.771  33.367  0.00  0.00    +0.145 HD
ATOM     42 HE22 GLN A   5      18.700 -12.230  32.980  0.00  0.00    +0.145 HD
ATOM     43  OE1 GLN A   5      18.956 -15.004  31.540  0.00  0.00    -0.275 OA
ENDBRANCH  38  39
ENDBRANCH  37  38
ENDBRANCH  34  37
ENDBRANCH  32  34
ENDBRANCH  29  30
BRANCH  29  44
ATOM     44  CB  THR A   4      20.519  -8.799  30.036  0.00  0.00    +0.137 C 
ATOM     45  CG2 THR A   4      21.197  -8.689  31.351  0.00  0.00    +0.034 C 
BRANCH  44  46
ATOM     46  OG1 THR A   4      19.900  -7.555  29.698  0.00  0.00    -0.382 OA
ATOM     47  HG1 THR A   4      19.415  -7.651  28.840  0.00  0.00    +0.210 HD
ENDBRANCH  44  46
ENDBRANCH  29  44
ENDBRANCH  26  29
ENDBRANCH   1  25
BRANCH   1  48
ATOM     48  CB  SER A   3      19.478 -10.233  25.215  0.00  0.00    +0.166 C 
BRANCH  48  49
ATOM     49  OG  SER A   3      18.349  -9.779  25.913  0.00  0.00    -0.380 OA
ATOM     50  H   SER A   3      17.990  -8.971  25.468  0.00  0.00    +0.211 HD
ENDBRANCH  48  49
ENDBRANCH   1  48
TORSDOF 21
REMARK  Name = ../refined-set-2016/4bc5/4bc5_pocket.pdb
REMARK  121 active torsions:
REMARK  status: ('A' for Active; 'I' for Inactive)
REMARK    1  A    between atoms: _1  and  _3
REMARK    2  A    between atoms: _3  and  _4
REMARK    3  A    between atoms: _3  and  _6
REMARK    4  A    between atoms: _6  and  _7
REMARK    5  A    between atoms: _10  and  _12
REMARK    6  A    between atoms: _12  and  _13
REMARK    7  A    between atoms: _12  and  _15
REMARK    8  A    between atoms: _15  and  _16
REMARK    9  A    between atoms: _22  and  _24
REMARK   10  A    between atoms: _24  and  _25
REMARK   11  A    between atoms: _24  and  _27
REMARK   12  A    between atoms: _27  and  _28
REMARK   13  A    between atoms: _30  and  _32
REMARK   14  A    between atoms: _32  and  _33
REMARK   15  A    between atoms: _32  and  _35
REMARK   16  A    between atoms: _35  and  _36
REMARK   17  A    between atoms: _39  and  _41
REMARK   18  A    between atoms: _41  and  _42
REMARK   19  A    between atoms: _41  and  _44
REMARK   20  A    between atoms: _44  and  _45
REMARK   21  A    between atoms: _45  and  _46
REMARK   22  A    between atoms: _51  and  _53
REMARK   23  A    between atoms: _53  and  _54
REMARK   24  A    between atoms: _56  and  _58
REMARK   25  A    between atoms: _58  and  _59
REMARK   26  A    between atoms: _58  and  _61
REMARK   27  A    between atoms: _61  and  _62
REMARK   28  A    between atoms: _62  and  _63
REMARK   29  A    between atoms: _68  and  _70
REMARK   30  A    between atoms: _70  and  _71
REMARK   31  A    between atoms: _70  and  _73
REMARK   32  A    between atoms: _73  and  _74
REMARK   33  A    between atoms: _74  and  _75
REMARK   34  A    between atoms: _80  and  _82
REMARK   35  A    between atoms: _82  and  _83
REMARK   36  A    between atoms: _82  and  _85
REMARK   37  A    between atoms: _85  and  _86
REMARK   38  A    between atoms: _91  and  _93
REMARK   39  A    between atoms: _93  and  _94
REMARK   40  A    between atoms: _96  and  _98
REMARK   41  A    between atoms: _98  and  _99
REMARK   42  A    between atoms: _98  and  _101
REMARK   43  A    between atoms: _104  and  _106
REMARK   44  A    between atoms: _106  and  _107
REMARK   45  A    between atoms: _106  and  _109
REMARK   46  A    between atoms: _109  and  _110
REMARK   47  A    between atoms: _120  and  _122
REMARK   48  A    between atoms: _122  and  _123
REMARK   49  A    between atoms: _122  and  _125
REMARK   50  A    between atoms: _125  and  _126
REMARK   51  A    between atoms: _126  and  _127
REMARK   52  A    between atoms: _129  and  _131
REMARK   53  A    between atoms: _131  and  _132
REMARK   54  A    between atoms: _131  and  _134
REMARK   55  A    between atoms: _134  and  _135
REMARK   56  A    between atoms: _138  and  _140
REMARK   57  A    between atoms: _140  and  _141
REMARK   58  A    between atoms: _140  and  _143
REMARK   59  A    between atoms: _143  and  _144
REMARK   60  A    between atoms: _146  and  _148
REMARK   61  A    between atoms: _148  and  _149
REMARK   62  A    between atoms: _148  and  _151
REMARK   63  A    between atoms: _151  and  _152
REMARK   64  A    between atoms: _157  and  _158
REMARK   65  A    between atoms: _160  and  _162
REMARK   66  A    between atoms: _162  and  _163
REMARK   67  A    between atoms: _162  and  _165
REMARK   68  A    between atoms: _165  and  _166
REMARK   69  A    between atoms: _166  and  _167
REMARK   70  A    between atoms: _167  and  _168
REMARK   71  A    between atoms: _177  and  _179
REMARK   72  A    between atoms: _179  and  _180
REMARK   73  A    between atoms: _179  and  _182
REMARK   74  A    between atoms: _182  and  _183
REMARK   75  A    between atoms: _189  and  _191
REMARK   76  A    between atoms: _191  and  _192
REMARK   77  A    between atoms: _191  and  _194
REMARK   78  A    between atoms: _197  and  _199
REMARK   79  A    between atoms: _199  and  _200
REMARK   80  A    between atoms: _199  and  _202
REMARK   81  A    between atoms: _202  and  _203
REMARK   82  A    between atoms: _206  and  _208
REMARK   83  A    between atoms: _208  and  _209
REMARK   84  A    between atoms: _211  and  _213
REMARK   85  A    between atoms: _213  and  _214
REMARK   86  A    between atoms: _216  and  _218
REMARK   87  A    between atoms: _218  and  _219
REMARK   88  A    between atoms: _218  and  _221
REMARK   89  A    between atoms: _221  and  _222
REMARK   90  A    between atoms: _225  and  _227
REMARK   91  A    between atoms: _227  and  _228
REMARK   92  A    between atoms: _227  and  _230
REMARK   93  A    between atoms: _230  and  _231
REMARK   94  A    between atoms: _237  and  _238
REMARK   95  A    between atoms: _243  and  _245
REMARK   96  A    between atoms: _245  and  _246
REMARK   97  A    between atoms: _245  and  _248
REMARK   98  A    between atoms: _248  and  _249
REMARK   99  A    between atoms: _251  and  _253
REMARK  100  A    between atoms: _253  and  _254
REMARK  101  A    between atoms: _253  and  _256
REMARK  102  A    between atoms: _256  and  _257
REMARK  103  A    between atoms: _260  and  _262
REMARK  104  A    between atoms: _262  and  _263
REMARK  105  A    between atoms: _262  and  _265
REMARK  106  A    between atoms: _265  and  _266
REMARK  107  A    between atoms: _272  and  _274
REMARK  108  A    between atoms: _274  and  _275
REMARK  109  A    between atoms: _274  and  _277
REMARK  110  A    between atoms: _277  and  _278
REMARK  111  A    between atoms: _283  and  _285
REMARK  112  A    between atoms: _285  and  _286
REMARK  113  A    between atoms: _285  and  _288
REMARK  114  A    between atoms: _288  and  _289
REMARK  115  A    between atoms: _295  and  _297
REMARK  116  A    between atoms: _297  and  _298
REMARK  117  A    between atoms: _297  and  _300
REMARK  118  A    between atoms: _300  and  _301
REMARK  119  A    between atoms: _304  and  _306
REMARK  120  A    between atoms: _306  and  _307
REMARK  121  A    between atoms: _306  and  _309
REMARK                            x       y       z     vdW  Elec       q    Type
REMARK                         _______ _______ _______ _____ _____    ______ ____
ROOT
ATOM      1  CA  GLN A   3      18.612  -0.577  25.963  0.00  0.00    +0.149 C 
ENDROOT
BRANCH   1   2
ATOM      2  C   GLN A   3      19.523   0.019  27.017  0.00  0.00    +0.241 C 
ATOM      3  O   GLN A   3      19.919  -0.649  27.983  0.00  0.00    -0.273 OA
ATOM      4  N   HIS A   4      19.917   1.277  26.777  0.00  0.00    -0.297 N 
ATOM      5  H   HIS A   4      19.665   1.690  25.857  0.00  0.00    +0.150 HD
BRANCH   4   6
ATOM      6  CA  HIS A   4      20.676   2.118  27.710  0.00  0.00    +0.155 C 
BRANCH   6   7
ATOM      7  C   HIS A   4      22.160   1.829  27.870  0.00  0.00    +0.241 C 
ATOM      8  O   HIS A   4      22.930   2.770  28.007  0.00  0.00    -0.273 OA
ATOM      9  N   GLY A   5      22.539   0.555  27.915  0.00  0.00    -0.296 N 
ATOM     10  H   GLY A   5      21.808  -0.180  27.834  0.00  0.00    +0.150 HD
BRANCH   9  11
ATOM     11  CA  GLY A   5      23.923   0.138  28.071  0.00  0.00    +0.163 C 
BRANCH  11  12
ATOM     12  C   GLY A   5      24.841   0.803  27.070  0.00  0.00    +0.229 C 
ATOM     13  O   GLY A   5      24.440   1.070  25.921  0.00  0.00    -0.286 OA
ENDBRANCH  11  12
ENDBRANCH   9  11
ENDBRANCH   6   7
BRANCH   6  14
ATOM     14  CB  HIS A   4      19.994   2.162  29.092  0.00  0.00    +0.076 C 
BRANCH  14  15
ATOM     15  CG  HIS A   4      18.505   2.294  29.008  0.00  0.00    +0.082 A 
ATOM     16  CD2 HIS A   4      17.546   1.409  29.346  0.00  0.00    +0.115 A 
ATOM     17  NE2 HIS A   4      16.349   1.973  29.005  0.00  0.00    -0.221 NA
ATOM     18  CE1 HIS A   4      16.609   3.153  28.431  0.00  0.00    +0.199 A 
ATOM     19  ND1 HIS A   4      17.908   3.385  28.396  0.00  0.00    -0.227 NA
ENDBRANCH  14  15
ENDBRANCH   6  14
ENDBRANCH   4   6
ENDBRANCH   1   2
BRANCH   1  21
ATOM     20  C   GLN A   2      19.600  -2.736  25.622  0.00  0.00    +0.241 C 
ATOM     21  N   GLN A   3      18.544  -2.043  26.005  0.00  0.00    -0.297 N 
ATOM     22  H   GLN A   3      17.682  -2.525  26.330  0.00  0.00    +0.150 HD
ATOM     23  O   GLN A   2      20.652  -2.178  25.274  0.00  0.00    -0.273 OA
BRANCH  20  24
ATOM     24  CA  GLN A   2      19.438  -4.243  25.471  0.00  0.00    +0.149 C 
BRANCH  24  26
ATOM     25  C   GLY A   1      19.601  -3.884  23.027  0.00  0.00    +0.240 C 
ATOM     26  N   GLN A   2      19.957  -4.549  24.127  0.00  0.00    -0.297 N 
ATOM     27  H   GLN A   2      20.640  -5.328  24.030  0.00  0.00    +0.150 HD
ATOM     28  O   GLY A   1      18.675  -3.064  22.996  0.00  0.00    -0.274 OA
BRANCH  25  29
ATOM     29  CA  GLY A   1      20.421  -4.160  21.799  0.00  0.00    +0.169 C 
BRANCH  29  30
ATOM     30  N   GLY A   1      19.577  -4.147  20.627  0.00  0.00    -0.236 NA
ATOM     31  H   GLY A   1      18.994  -3.305  20.445  0.00  0.00    +0.142 HD
ENDBRANCH  29  30
ENDBRANCH  25  29
ENDBRANCH  24  26
BRANCH  24  32
ATOM     32  CB  GLN A   2      20.237  -4.997  26.555  0.00  0.00    +0.039 C 
BRANCH  32  33
ATOM     33  CG  GLN A   2      21.769  -4.836  26.459  0.00  0.00    +0.087 C 
BRANCH  33  34
ATOM     34  CD  GLN A   2      22.477  -5.482  27.622  0.00  0.00    +0.219 C 
ATOM     35  OE1 GLN A   2      22.221  -5.168  28.781  0.00  0.00    -0.275 OA
ATOM     36  NE2 GLN A   2      23.363  -6.405  27.353  0.00  0.00    -0.329 N 
ATOM     37 HE21 GLN A   2      23.864  -6.886  28.127  0.00  0.00    +0.145 HD
ATOM     38 HE22 GLN A   2      23.567  -6.658  26.365  0.00  0.00    +0.145 HD
ENDBRANCH  33  34
ENDBRANCH  32  33
ENDBRANCH  24  32
ENDBRANCH  20  24
ENDBRANCH   1  21
BRANCH   1  39
ATOM     39  CB  GLN A   3      17.218   0.033  26.036  0.00  0.00    +0.039 C 
BRANCH  39  40
ATOM     40  CG  GLN A   3      16.343  -0.427  24.882  0.00  0.00    +0.087 C 
BRANCH  40  41
ATOM     41  CD  GLN A   3      15.130   0.439  24.744  0.00  0.00    +0.219 C 
ATOM     42  OE1 GLN A   3      14.057   0.117  25.272  0.00  0.00    -0.275 OA
ATOM     43  NE2 GLN A   3      15.290   1.568  24.041  0.00  0.00    -0.329 N 
ATOM     44 HE21 GLN A   3      14.491   2.222  23.918  0.00  0.00    +0.145 HD
ATOM     45 HE22 GLN A   3      16.214   1.791  23.618  0.00  0.00    +0.145 HD
ENDBRANCH  40  41
ENDBRANCH  39  40
ENDBRANCH   1  39
TORSDOF 18
REMARK  Name = ../refined-set-2016/4bc5/4bc5_pocket.pdb
REMARK  121 active torsions:
REMARK  status: ('A' for Active; 'I' for Inactive)
REMARK    1  A    between atoms: _1  and  _3
REMARK    2  A    between atoms: _3  and  _4
REMARK    3  A    between atoms: _3  and  _6
REMARK    4  A    between atoms: _6  and  _7
REMARK    5  A    between atoms: _10  and  _12
REMARK    6  A    between atoms: _12  and  _13
REMARK    7  A    between atoms: _12  and  _15
REMARK    8  A    between atoms: _15  and  _16
REMARK    9  A    between atoms: _22  and  _24
REMARK   10  A    between atoms: _24  and  _25
REMARK   11  A    between atoms: _24  and  _27
REMARK   12  A    between atoms: _27  and  _28
REMARK   13  A    between atoms: _30  and  _32
REMARK   14  A    between atoms: _32  and  _33
REMARK   15  A    between atoms: _32  and  _35
REMARK   16  A    between atoms: _35  and  _36
REMARK   17  A    between atoms: _39  and  _41
REMARK   18  A    between atoms: _41  and  _42
REMARK   19  A    between atoms: _41  and  _44
REMARK   20  A    between atoms: _44  and  _45
REMARK   21  A    between atoms: _45  and  _46
REMARK   22  A    between atoms: _51  and  _53
REMARK   23  A    between atoms: _53  and  _54
REMARK   24  A    between atoms: _56  and  _58
REMARK   25  A    between atoms: _58  and  _59
REMARK   26  A    between atoms: _58  and  _61
REMARK   27  A    between atoms: _61  and  _62
REMARK   28  A    between atoms: _62  and  _63
REMARK   29  A    between atoms: _68  and  _70
REMARK   30  A    between atoms: _70  and  _71
REMARK   31  A    between atoms: _70  and  _73
REMARK   32  A    between atoms: _73  and  _74
REMARK   33  A    between atoms: _74  and  _75
REMARK   34  A    between atoms: _80  and  _82
REMARK   35  A    between atoms: _82  and  _83
REMARK   36  A    between atoms: _82  and  _85
REMARK   37  A    between atoms: _85  and  _86
REMARK   38  A    between atoms: _91  and  _93
REMARK   39  A    between atoms: _93  and  _94
REMARK   40  A    between atoms: _96  and  _98
REMARK   41  A    between atoms: _98  and  _99
REMARK   42  A    between atoms: _98  and  _101
REMARK   43  A    between atoms: _104  and  _106
REMARK   44  A    between atoms: _106  and  _107
REMARK   45  A    between atoms: _106  and  _109
REMARK   46  A    between atoms: _109  and  _110
REMARK   47  A    between atoms: _120  and  _122
REMARK   48  A    between atoms: _122  and  _123
REMARK   49  A    between atoms: _122  and  _125
REMARK   50  A    between atoms: _125  and  _126
REMARK   51  A    between atoms: _126  and  _127
REMARK   52  A    between atoms: _129  and  _131
REMARK   53  A    between atoms: _131  and  _132
REMARK   54  A    between atoms: _131  and  _134
REMARK   55  A    between atoms: _134  and  _135
REMARK   56  A    between atoms: _138  and  _140
REMARK   57  A    between atoms: _140  and  _141
REMARK   58  A    between atoms: _140  and  _143
REMARK   59  A    between atoms: _143  and  _144
REMARK   60  A    between atoms: _146  and  _148
REMARK   61  A    between atoms: _148  and  _149
REMARK   62  A    between atoms: _148  and  _151
REMARK   63  A    between atoms: _151  and  _152
REMARK   64  A    between atoms: _157  and  _158
REMARK   65  A    between atoms: _160  and  _162
REMARK   66  A    between atoms: _162  and  _163
REMARK   67  A    between atoms: _162  and  _165
REMARK   68  A    between atoms: _165  and  _166
REMARK   69  A    between atoms: _166  and  _167
REMARK   70  A    between atoms: _167  and  _168
REMARK   71  A    between atoms: _177  and  _179
REMARK   72  A    between atoms: _179  and  _180
REMARK   73  A    between atoms: _179  and  _182
REMARK   74  A    between atoms: _182  and  _183
REMARK   75  A    between atoms: _189  and  _191
REMARK   76  A    between atoms: _191  and  _192
REMARK   77  A    between atoms: _191  and  _194
REMARK   78  A    between atoms: _197  and  _199
REMARK   79  A    between atoms: _199  and  _200
REMARK   80  A    between atoms: _199  and  _202
REMARK   81  A    between atoms: _202  and  _203
REMARK   82  A    between atoms: _206  and  _208
REMARK   83  A    between atoms: _208  and  _209
REMARK   84  A    between atoms: _211  and  _213
REMARK   85  A    between atoms: _213  and  _214
REMARK   86  A    between atoms: _216  and  _218
REMARK   87  A    between atoms: _218  and  _219
REMARK   88  A    between atoms: _218  and  _221
REMARK   89  A    between atoms: _221  and  _222
REMARK   90  A    between atoms: _225  and  _227
REMARK   91  A    between atoms: _227  and  _228
REMARK   92  A    between atoms: _227  and  _230
REMARK   93  A    between atoms: _230  and  _231
REMARK   94  A    between atoms: _237  and  _238
REMARK   95  A    between atoms: _243  and  _245
REMARK   96  A    between atoms: _245  and  _246
REMARK   97  A    between atoms: _245  and  _248
REMARK   98  A    between atoms: _248  and  _249
REMARK   99  A    between atoms: _251  and  _253
REMARK  100  A    between atoms: _253  and  _254
REMARK  101  A    between atoms: _253  and  _256
REMARK  102  A    between atoms: _256  and  _257
REMARK  103  A    between atoms: _260  and  _262
REMARK  104  A    between atoms: _262  and  _263
REMARK  105  A    between atoms: _262  and  _265
REMARK  106  A    between atoms: _265  and  _266
REMARK  107  A    between atoms: _272  and  _274
REMARK  108  A    between atoms: _274  and  _275
REMARK  109  A    between atoms: _274  and  _277
REMARK  110  A    between atoms: _277  and  _278
REMARK  111  A    between atoms: _283  and  _285
REMARK  112  A    between atoms: _285  and  _286
REMARK  113  A    between atoms: _285  and  _288
REMARK  114  A    between atoms: _288  and  _289
REMARK  115  A    between atoms: _295  and  _297
REMARK  116  A    between atoms: _297  and  _298
REMARK  117  A    between atoms: _297  and  _300
REMARK  118  A    between atoms: _300  and  _301
REMARK  119  A    between atoms: _304  and  _306
REMARK  120  A    between atoms: _306  and  _307
REMARK  121  A    between atoms: _306  and  _309
REMARK                            x       y       z     vdW  Elec       q    Type
REMARK                         _______ _______ _______ _____ _____    ______ ____
ROOT
ATOM      1  CA  TRP A   2      20.108  -1.334  32.125  0.00  0.00    +0.153 C 
ENDROOT
BRANCH   1   4
ATOM      2  C   VAL A   1      22.590  -1.416  32.283  0.00  0.00    +0.238 C 
ATOM      3  O   VAL A   1      22.649  -0.660  33.239  0.00  0.00    -0.274 OA
ATOM      4  N   TRP A   2      21.439  -1.806  31.715  0.00  0.00    -0.297 N 
ATOM      5  H   TRP A   2      21.492  -2.488  30.932  0.00  0.00    +0.150 HD
BRANCH   2   6
ATOM      6  CA  VAL A   1      23.861  -1.947  31.662  0.00  0.00    +0.145 C 
BRANCH   6   7
ATOM      7  CB  VAL A   1      23.919  -3.510  31.590  0.00  0.00    +0.025 C 
ATOM      8  CG2 VAL A   1      24.009  -4.145  32.976  0.00  0.00    +0.002 C 
ATOM      9  CG1 VAL A   1      25.105  -3.941  30.735  0.00  0.00    +0.002 C 
ENDBRANCH   6   7
BRANCH   6  10
ATOM     10  N   VAL A   1      24.999  -1.368  32.350  0.00  0.00    -0.238 NA
ATOM     11  H   VAL A   1      25.104  -1.554  33.368  0.00  0.00    +0.142 HD
ENDBRANCH   6  10
ENDBRANCH   2   6
ENDBRANCH   1   4
BRANCH   1  12
ATOM     12  C   TRP A   2      19.756  -1.538  33.618  0.00  0.00    +0.241 C 
ATOM     13  N   MET A   3      20.389  -2.513  34.275  0.00  0.00    -0.297 N 
ATOM     14  H   MET A   3      21.100  -3.066  33.755  0.00  0.00    +0.150 HD
ATOM     15  O   TRP A   2      18.921  -0.812  34.153  0.00  0.00    -0.273 OA
BRANCH  13  16
ATOM     16  CA  MET A   3      20.150  -2.858  35.681  0.00  0.00    +0.149 C 
BRANCH  16  17
ATOM     17  C   MET A   3      20.865  -1.934  36.665  0.00  0.00    +0.241 C 
ATOM     18  O   MET A   3      20.553  -1.952  37.855  0.00  0.00    -0.273 OA
ATOM     19  N   ASP A   4      21.800  -1.134  36.185  0.00  0.00    -0.298 N 
ATOM     20  H   ASP A   4      22.011  -1.162  35.167  0.00  0.00    +0.150 HD
BRANCH  19  21
ATOM     21  CA  ASP A   4      22.547  -0.211  37.036  0.00  0.00    +0.148 C 
BRANCH  21  22
ATOM     22  C   ASP A   4      21.638   0.893  37.650  0.00  0.00    +0.227 C 
ATOM     23  O   ASP A   4      20.806   1.483  36.948  0.00  0.00    -0.286 OA
ENDBRANCH  21  22
BRANCH  21  24
ATOM     24  CB  ASP A   4      23.669   0.432  36.223  0.00  0.00    +0.142 C 
BRANCH  24  25
ATOM     25  CG  ASP A   4      24.706   1.131  37.074  0.00  0.00    +0.367 C 
ATOM     26  OD2 ASP A   4      24.402   2.242  37.604  0.00  0.00    -0.246 OA
ATOM     27  OD1 ASP A   4      25.841   0.622  37.147  0.00  0.00    -0.246 OA
ENDBRANCH  24  25
ENDBRANCH  21  24
ENDBRANCH  19  21
ENDBRANCH  16  17
BRANCH  16  28
ATOM     28  CB  MET A   3      20.561  -4.311  35.935  0.00  0.00    +0.041 C 
BRANCH  28  29
ATOM     29  CG  MET A   3      19.749  -5.294  35.136  0.00  0.00    +0.060 C 
BRANCH  29  30
ATOM     30  SD  MET A   3      20.357  -7.012  35.264  0.00  0.00    -0.139 S 
ATOM     31  CE  MET A   3      19.932  -7.345  36.862  0.00  0.00    +0.069 C 
ENDBRANCH  29  30
ENDBRANCH  28  29
ENDBRANCH  16  28
ENDBRANCH  13  16
ENDBRANCH   1  12
BRANCH   1  32
ATOM     32  CB  TRP A   2      19.039  -1.938  31.213  0.00  0.00    +0.057 C 
BRANCH  32  33
ATOM     33  CG  TRP A   2      18.761  -3.388  31.493  0.00  0.00    -0.002 A 
ATOM     34  CD2 TRP A   2      17.724  -3.908  32.331  0.00  0.00    +0.013 A 
ATOM     35  CE3 TRP A   2      16.756  -3.319  33.166  0.00  0.00    +0.001 A 
ATOM     36  CZ3 TRP A   2      15.910  -4.143  33.901  0.00  0.00    +0.000 A 
ATOM     37  CH2 TRP A   2      15.995  -5.541  33.796  0.00  0.00    +0.001 A 
ATOM     38  CZ2 TRP A   2      16.916  -6.147  32.969  0.00  0.00    +0.017 A 
ATOM     39  CE2 TRP A   2      17.795  -5.315  32.259  0.00  0.00    +0.056 A 
ATOM     40  NE1 TRP A   2      18.829  -5.626  31.414  0.00  0.00    -0.352 N 
ATOM     41  HE1 TRP A   2      19.148  -6.588  31.180  0.00  0.00    +0.166 HD
ATOM     42  CD1 TRP A   2      19.375  -4.467  30.926  0.00  0.00    +0.068 A 
ENDBRANCH  32  33
ENDBRANCH   1  32
TORSDOF 16
REMARK  Name = ../refined-set-2016/4bc5/4bc5_pocket.pdb
REMARK  121 active torsions:
REMARK  status: ('A' for Active; 'I' for Inactive)
REMARK    1  A    between atoms: _1  and  _3
REMARK    2  A    between atoms: _3  and  _4
REMARK    3  A    between atoms: _3  and  _6
REMARK    4  A    between atoms: _6  and  _7
REMARK    5  A    between atoms: _10  and  _12
REMARK    6  A    between atoms: _12  and  _13
REMARK    7  A    between atoms: _12  and  _15
REMARK    8  A    between atoms: _15  and  _16
REMARK    9  A    between atoms: _22  and  _24
REMARK   10  A    between atoms: _24  and  _25
REMARK   11  A    between atoms: _24  and  _27
REMARK   12  A    between atoms: _27  and  _28
REMARK   13  A    between atoms: _30  and  _32
REMARK   14  A    between atoms: _32  and  _33
REMARK   15  A    between atoms: _32  and  _35
REMARK   16  A    between atoms: _35  and  _36
REMARK   17  A    between atoms: _39  and  _41
REMARK   18  A    between atoms: _41  and  _42
REMARK   19  A    between atoms: _41  and  _44
REMARK   20  A    between atoms: _44  and  _45
REMARK   21  A    between atoms: _45  and  _46
REMARK   22  A    between atoms: _51  and  _53
REMARK   23  A    between atoms: _53  and  _54
REMARK   24  A    between atoms: _56  and  _58
REMARK   25  A    between atoms: _58  and  _59
REMARK   26  A    between atoms: _58  and  _61
REMARK   27  A    between atoms: _61  and  _62
REMARK   28  A    between atoms: _62  and  _63
REMARK   29  A    between atoms: _68  and  _70
REMARK   30  A    between atoms: _70  and  _71
REMARK   31  A    between atoms: _70  and  _73
REMARK   32  A    between atoms: _73  and  _74
REMARK   33  A    between atoms: _74  and  _75
REMARK   34  A    between atoms: _80  and  _82
REMARK   35  A    between atoms: _82  and  _83
REMARK   36  A    between atoms: _82  and  _85
REMARK   37  A    between atoms: _85  and  _86
REMARK   38  A    between atoms: _91  and  _93
REMARK   39  A    between atoms: _93  and  _94
REMARK   40  A    between atoms: _96  and  _98
REMARK   41  A    between atoms: _98  and  _99
REMARK   42  A    between atoms: _98  and  _101
REMARK   43  A    between atoms: _104  and  _106
REMARK   44  A    between atoms: _106  and  _107
REMARK   45  A    between atoms: _106  and  _109
REMARK   46  A    between atoms: _109  and  _110
REMARK   47  A    between atoms: _120  and  _122
REMARK   48  A    between atoms: _122  and  _123
REMARK   49  A    between atoms: _122  and  _125
REMARK   50  A    between atoms: _125  and  _126
REMARK   51  A    between atoms: _126  and  _127
REMARK   52  A    between atoms: _129  and  _131
REMARK   53  A    between atoms: _131  and  _132
REMARK   54  A    between atoms: _131  and  _134
REMARK   55  A    between atoms: _134  and  _135
REMARK   56  A    between atoms: _138  and  _140
REMARK   57  A    between atoms: _140  and  _141
REMARK   58  A    between atoms: _140  and  _143
REMARK   59  A    between atoms: _143  and  _144
REMARK   60  A    between atoms: _146  and  _148
REMARK   61  A    between atoms: _148  and  _149
REMARK   62  A    between atoms: _148  and  _151
REMARK   63  A    between atoms: _151  and  _152
REMARK   64  A    between atoms: _157  and  _158
REMARK   65  A    between atoms: _160  and  _162
REMARK   66  A    between atoms: _162  and  _163
REMARK   67  A    between atoms: _162  and  _165
REMARK   68  A    between atoms: _165  and  _166
REMARK   69  A    between atoms: _166  and  _167
REMARK   70  A    between atoms: _167  and  _168
REMARK   71  A    between atoms: _177  and  _179
REMARK   72  A    between atoms: _179  and  _180
REMARK   73  A    between atoms: _179  and  _182
REMARK   74  A    between atoms: _182  and  _183
REMARK   75  A    between atoms: _189  and  _191
REMARK   76  A    between atoms: _191  and  _192
REMARK   77  A    between atoms: _191  and  _194
REMARK   78  A    between atoms: _197  and  _199
REMARK   79  A    between atoms: _199  and  _200
REMARK   80  A    between atoms: _199  and  _202
REMARK   81  A    between atoms: _202  and  _203
REMARK   82  A    between atoms: _206  and  _208
REMARK   83  A    between atoms: _208  and  _209
REMARK   84  A    between atoms: _211  and  _213
REMARK   85  A    between atoms: _213  and  _214
REMARK   86  A    between atoms: _216  and  _218
REMARK   87  A    between atoms: _218  and  _219
REMARK   88  A    between atoms: _218  and  _221
REMARK   89  A    between atoms: _221  and  _222
REMARK   90  A    between atoms: _225  and  _227
REMARK   91  A    between atoms: _227  and  _228
REMARK   92  A    between atoms: _227  and  _230
REMARK   93  A    between atoms: _230  and  _231
REMARK   94  A    between atoms: _237  and  _238
REMARK   95  A    between atoms: _243  and  _245
REMARK   96  A    between atoms: _245  and  _246
REMARK   97  A    between atoms: _245  and  _248
REMARK   98  A    between atoms: _248  and  _249
REMARK   99  A    between atoms: _251  and  _253
REMARK  100  A    between atoms: _253  and  _254
REMARK  101  A    between atoms: _253  and  _256
REMARK  102  A    between atoms: _256  and  _257
REMARK  103  A    between atoms: _260  and  _262
REMARK  104  A    between atoms: _262  and  _263
REMARK  105  A    between atoms: _262  and  _265
REMARK  106  A    between atoms: _265  and  _266
REMARK  107  A    between atoms: _272  and  _274
REMARK  108  A    between atoms: _274  and  _275
REMARK  109  A    between atoms: _274  and  _277
REMARK  110  A    between atoms: _277  and  _278
REMARK  111  A    between atoms: _283  and  _285
REMARK  112  A    between atoms: _285  and  _286
REMARK  113  A    between atoms: _285  and  _288
REMARK  114  A    between atoms: _288  and  _289
REMARK  115  A    between atoms: _295  and  _297
REMARK  116  A    between atoms: _297  and  _298
REMARK  117  A    between atoms: _297  and  _300
REMARK  118  A    between atoms: _300  and  _301
REMARK  119  A    between atoms: _304  and  _306
REMARK  120  A    between atoms: _306  and  _307
REMARK  121  A    between atoms: _306  and  _309
REMARK                            x       y       z     vdW  Elec       q    Type
REMARK                         _______ _______ _______ _____ _____    ______ ____
ROOT
ATOM      1  CA  SER A   1      11.712  10.683  30.158  0.00  0.00    +0.163 C 
ENDROOT
BRANCH   1   2
ATOM      2  N   SER A   1      11.606  11.271  28.834  0.00  0.00    -0.237 NA
ATOM      3  H   SER A   1      12.344  11.942  28.541  0.00  0.00    +0.142 HD
ENDBRANCH   1   2
BRANCH   1   4
ATOM      4  C   SER A   1      12.342  11.691  31.089  0.00  0.00    +0.227 C 
ATOM      5  O   SER A   1      13.212  12.471  30.665  0.00  0.00    -0.287 OA
ENDBRANCH   1   4
BRANCH   1   6
ATOM      6  CB  SER A   1      12.653   9.469  30.125  0.00  0.00    +0.162 C 
BRANCH   6   7
ATOM      7  OG  SER A   1      12.053   8.269  29.674  0.00  0.00    -0.380 OA
ATOM      8  H   SER A   1      11.716   8.396  28.752  0.00  0.00    +0.211 HD
ENDBRANCH   6   7
ENDBRANCH   1   6
TORSDOF 4
REMARK  Name = ../refined-set-2016/4bc5/4bc5_pocket.pdb
REMARK  121 active torsions:
REMARK  status: ('A' for Active; 'I' for Inactive)
REMARK    1  A    between atoms: _1  and  _3
REMARK    2  A    between atoms: _3  and  _4
REMARK    3  A    between atoms: _3  and  _6
REMARK    4  A    between atoms: _6  and  _7
REMARK    5  A    between atoms: _10  and  _12
REMARK    6  A    between atoms: _12  and  _13
REMARK    7  A    between atoms: _12  and  _15
REMARK    8  A    between atoms: _15  and  _16
REMARK    9  A    between atoms: _22  and  _24
REMARK   10  A    between atoms: _24  and  _25
REMARK   11  A    between atoms: _24  and  _27
REMARK   12  A    between atoms: _27  and  _28
REMARK   13  A    between atoms: _30  and  _32
REMARK   14  A    between atoms: _32  and  _33
REMARK   15  A    between atoms: _32  and  _35
REMARK   16  A    between atoms: _35  and  _36
REMARK   17  A    between atoms: _39  and  _41
REMARK   18  A    between atoms: _41  and  _42
REMARK   19  A    between atoms: _41  and  _44
REMARK   20  A    between atoms: _44  and  _45
REMARK   21  A    between atoms: _45  and  _46
REMARK   22  A    between atoms: _51  and  _53
REMARK   23  A    between atoms: _53  and  _54
REMARK   24  A    between atoms: _56  and  _58
REMARK   25  A    between atoms: _58  and  _59
REMARK   26  A    between atoms: _58  and  _61
REMARK   27  A    between atoms: _61  and  _62
REMARK   28  A    between atoms: _62  and  _63
REMARK   29  A    between atoms: _68  and  _70
REMARK   30  A    between atoms: _70  and  _71
REMARK   31  A    between atoms: _70  and  _73
REMARK   32  A    between atoms: _73  and  _74
REMARK   33  A    between atoms: _74  and  _75
REMARK   34  A    between atoms: _80  and  _82
REMARK   35  A    between atoms: _82  and  _83
REMARK   36  A    between atoms: _82  and  _85
REMARK   37  A    between atoms: _85  and  _86
REMARK   38  A    between atoms: _91  and  _93
REMARK   39  A    between atoms: _93  and  _94
REMARK   40  A    between atoms: _96  and  _98
REMARK   41  A    between atoms: _98  and  _99
REMARK   42  A    between atoms: _98  and  _101
REMARK   43  A    between atoms: _104  and  _106
REMARK   44  A    between atoms: _106  and  _107
REMARK   45  A    between atoms: _106  and  _109
REMARK   46  A    between atoms: _109  and  _110
REMARK   47  A    between atoms: _120  and  _122
REMARK   48  A    between atoms: _122  and  _123
REMARK   49  A    between atoms: _122  and  _125
REMARK   50  A    between atoms: _125  and  _126
REMARK   51  A    between atoms: _126  and  _127
REMARK   52  A    between atoms: _129  and  _131
REMARK   53  A    between atoms: _131  and  _132
REMARK   54  A    between atoms: _131  and  _134
REMARK   55  A    between atoms: _134  and  _135
REMARK   56  A    between atoms: _138  and  _140
REMARK   57  A    between atoms: _140  and  _141
REMARK   58  A    between atoms: _140  and  _143
REMARK   59  A    between atoms: _143  and  _144
REMARK   60  A    between atoms: _146  and  _148
REMARK   61  A    between atoms: _148  and  _149
REMARK   62  A    between atoms: _148  and  _151
REMARK   63  A    between atoms: _151  and  _152
REMARK   64  A    between atoms: _157  and  _158
REMARK   65  A    between atoms: _160  and  _162
REMARK   66  A    between atoms: _162  and  _163
REMARK   67  A    between atoms: _162  and  _165
REMARK   68  A    between atoms: _165  and  _166
REMARK   69  A    between atoms: _166  and  _167
REMARK   70  A    between atoms: _167  and  _168
REMARK   71  A    between atoms: _177  and  _179
REMARK   72  A    between atoms: _179  and  _180
REMARK   73  A    between atoms: _179  and  _182
REMARK   74  A    between atoms: _182  and  _183
REMARK   75  A    between atoms: _189  and  _191
REMARK   76  A    between atoms: _191  and  _192
REMARK   77  A    between atoms: _191  and  _194
REMARK   78  A    between atoms: _197  and  _199
REMARK   79  A    between atoms: _199  and  _200
REMARK   80  A    between atoms: _199  and  _202
REMARK   81  A    between atoms: _202  and  _203
REMARK   82  A    between atoms: _206  and  _208
REMARK   83  A    between atoms: _208  and  _209
REMARK   84  A    between atoms: _211  and  _213
REMARK   85  A    between atoms: _213  and  _214
REMARK   86  A    between atoms: _216  and  _218
REMARK   87  A    between atoms: _218  and  _219
REMARK   88  A    between atoms: _218  and  _221
REMARK   89  A    between atoms: _221  and  _222
REMARK   90  A    between atoms: _225  and  _227
REMARK   91  A    between atoms: _227  and  _228
REMARK   92  A    between atoms: _227  and  _230
REMARK   93  A    between atoms: _230  and  _231
REMARK   94  A    between atoms: _237  and  _238
REMARK   95  A    between atoms: _243  and  _245
REMARK   96  A    between atoms: _245  and  _246
REMARK   97  A    between atoms: _245  and  _248
REMARK   98  A    between atoms: _248  and  _249
REMARK   99  A    between atoms: _251  and  _253
REMARK  100  A    between atoms: _253  and  _254
REMARK  101  A    between atoms: _253  and  _256
REMARK  102  A    between atoms: _256  and  _257
REMARK  103  A    between atoms: _260  and  _262
REMARK  104  A    between atoms: _262  and  _263
REMARK  105  A    between atoms: _262  and  _265
REMARK  106  A    between atoms: _265  and  _266
REMARK  107  A    between atoms: _272  and  _274
REMARK  108  A    between atoms: _274  and  _275
REMARK  109  A    between atoms: _274  and  _277
REMARK  110  A    between atoms: _277  and  _278
REMARK  111  A    between atoms: _283  and  _285
REMARK  112  A    between atoms: _285  and  _286
REMARK  113  A    between atoms: _285  and  _288
REMARK  114  A    between atoms: _288  and  _289
REMARK  115  A    between atoms: _295  and  _297
REMARK  116  A    between atoms: _297  and  _298
REMARK  117  A    between atoms: _297  and  _300
REMARK  118  A    between atoms: _300  and  _301
REMARK  119  A    between atoms: _304  and  _306
REMARK  120  A    between atoms: _306  and  _307
REMARK  121  A    between atoms: _306  and  _309
REMARK                            x       y       z     vdW  Elec       q    Type
REMARK                         _______ _______ _______ _____ _____    ______ ____
ROOT
ATOM      1  CG  TYR A   1      14.120   6.898  34.465  0.00  0.00    -0.020 A 
ATOM      2  CD2 TYR A   1      13.337   6.326  35.460  0.00  0.00    -0.001 A 
ATOM      3  CE2 TYR A   1      11.990   6.666  35.610  0.00  0.00    +0.036 A 
ATOM      4  CZ  TYR A   1      11.412   7.602  34.769  0.00  0.00    +0.134 A 
ATOM      5  CE1 TYR A   1      12.168   8.132  33.732  0.00  0.00    +0.036 A 
ATOM      6  CD1 TYR A   1      13.517   7.795  33.604  0.00  0.00    -0.001 A 
ENDROOT
BRANCH   4   7
ATOM      7  OH  TYR A   1      10.079   7.944  34.922  0.00  0.00    -0.506 OA
ATOM      8  HH  TYR A   1      10.004   8.922  35.056  0.00  0.00    +0.292 HD
ENDBRANCH   4   7
BRANCH   1   9
ATOM      9  CB  TYR A   1      15.588   6.571  34.347  0.00  0.00    +0.051 C 
BRANCH   9  10
ATOM     10  CA  TYR A   1      16.437   7.522  35.186  0.00  0.00    +0.137 C 
BRANCH  10  11
ATOM     11  N   TYR A   1      16.478   8.870  34.638  0.00  0.00    -0.239 NA
ATOM     12  H   TYR A   1      16.877   9.011  33.688  0.00  0.00    +0.142 HD
ENDBRANCH  10  11
BRANCH  10  13
ATOM     13  C   TYR A   1      17.875   7.068  35.280  0.00  0.00    +0.224 C 
ATOM     14  O   TYR A   1      18.693   7.351  34.396  0.00  0.00    -0.287 OA
ENDBRANCH  10  13
ENDBRANCH   9  10
ENDBRANCH   1   9
TORSDOF 5
REMARK  Name = ../refined-set-2016/4bc5/4bc5_pocket.pdb
REMARK  121 active torsions:
REMARK  status: ('A' for Active; 'I' for Inactive)
REMARK    1  A    between atoms: _1  and  _3
REMARK    2  A    between atoms: _3  and  _4
REMARK    3  A    between atoms: _3  and  _6
REMARK    4  A    between atoms: _6  and  _7
REMARK    5  A    between atoms: _10  and  _12
REMARK    6  A    between atoms: _12  and  _13
REMARK    7  A    between atoms: _12  and  _15
REMARK    8  A    between atoms: _15  and  _16
REMARK    9  A    between atoms: _22  and  _24
REMARK   10  A    between atoms: _24  and  _25
REMARK   11  A    between atoms: _24  and  _27
REMARK   12  A    between atoms: _27  and  _28
REMARK   13  A    between atoms: _30  and  _32
REMARK   14  A    between atoms: _32  and  _33
REMARK   15  A    between atoms: _32  and  _35
REMARK   16  A    between atoms: _35  and  _36
REMARK   17  A    between atoms: _39  and  _41
REMARK   18  A    between atoms: _41  and  _42
REMARK   19  A    between atoms: _41  and  _44
REMARK   20  A    between atoms: _44  and  _45
REMARK   21  A    between atoms: _45  and  _46
REMARK   22  A    between atoms: _51  and  _53
REMARK   23  A    between atoms: _53  and  _54
REMARK   24  A    between atoms: _56  and  _58
REMARK   25  A    between atoms: _58  and  _59
REMARK   26  A    between atoms: _58  and  _61
REMARK   27  A    between atoms: _61  and  _62
REMARK   28  A    between atoms: _62  and  _63
REMARK   29  A    between atoms: _68  and  _70
REMARK   30  A    between atoms: _70  and  _71
REMARK   31  A    between atoms: _70  and  _73
REMARK   32  A    between atoms: _73  and  _74
REMARK   33  A    between atoms: _74  and  _75
REMARK   34  A    between atoms: _80  and  _82
REMARK   35  A    between atoms: _82  and  _83
REMARK   36  A    between atoms: _82  and  _85
REMARK   37  A    between atoms: _85  and  _86
REMARK   38  A    between atoms: _91  and  _93
REMARK   39  A    between atoms: _93  and  _94
REMARK   40  A    between atoms: _96  and  _98
REMARK   41  A    between atoms: _98  and  _99
REMARK   42  A    between atoms: _98  and  _101
REMARK   43  A    between atoms: _104  and  _106
REMARK   44  A    between atoms: _106  and  _107
REMARK   45  A    between atoms: _106  and  _109
REMARK   46  A    between atoms: _109  and  _110
REMARK   47  A    between atoms: _120  and  _122
REMARK   48  A    between atoms: _122  and  _123
REMARK   49  A    between atoms: _122  and  _125
REMARK   50  A    between atoms: _125  and  _126
REMARK   51  A    between atoms: _126  and  _127
REMARK   52  A    between atoms: _129  and  _131
REMARK   53  A    between atoms: _131  and  _132
REMARK   54  A    between atoms: _131  and  _134
REMARK   55  A    between atoms: _134  and  _135
REMARK   56  A    between atoms: _138  and  _140
REMARK   57  A    between atoms: _140  and  _141
REMARK   58  A    between atoms: _140  and  _143
REMARK   59  A    between atoms: _143  and  _144
REMARK   60  A    between atoms: _146  and  _148
REMARK   61  A    between atoms: _148  and  _149
REMARK   62  A    between atoms: _148  and  _151
REMARK   63  A    between atoms: _151  and  _152
REMARK   64  A    between atoms: _157  and  _158
REMARK   65  A    between atoms: _160  and  _162
REMARK   66  A    between atoms: _162  and  _163
REMARK   67  A    between atoms: _162  and  _165
REMARK   68  A    between atoms: _165  and  _166
REMARK   69  A    between atoms: _166  and  _167
REMARK   70  A    between atoms: _167  and  _168
REMARK   71  A    between atoms: _177  and  _179
REMARK   72  A    between atoms: _179  and  _180
REMARK   73  A    between atoms: _179  and  _182
REMARK   74  A    between atoms: _182  and  _183
REMARK   75  A    between atoms: _189  and  _191
REMARK   76  A    between atoms: _191  and  _192
REMARK   77  A    between atoms: _191  and  _194
REMARK   78  A    between atoms: _197  and  _199
REMARK   79  A    between atoms: _199  and  _200
REMARK   80  A    between atoms: _199  and  _202
REMARK   81  A    between atoms: _202  and  _203
REMARK   82  A    between atoms: _206  and  _208
REMARK   83  A    between atoms: _208  and  _209
REMARK   84  A    between atoms: _211  and  _213
REMARK   85  A    between atoms: _213  and  _214
REMARK   86  A    between atoms: _216  and  _218
REMARK   87  A    between atoms: _218  and  _219
REMARK   88  A    between atoms: _218  and  _221
REMARK   89  A    between atoms: _221  and  _222
REMARK   90  A    between atoms: _225  and  _227
REMARK   91  A    between atoms: _227  and  _228
REMARK   92  A    between atoms: _227  and  _230
REMARK   93  A    between atoms: _230  and  _231
REMARK   94  A    between atoms: _237  and  _238
REMARK   95  A    between atoms: _243  and  _245
REMARK   96  A    between atoms: _245  and  _246
REMARK   97  A    between atoms: _245  and  _248
REMARK   98  A    between atoms: _248  and  _249
REMARK   99  A    between atoms: _251  and  _253
REMARK  100  A    between atoms: _253  and  _254
REMARK  101  A    between atoms: _253  and  _256
REMARK  102  A    between atoms: _256  and  _257
REMARK  103  A    between atoms: _260  and  _262
REMARK  104  A    between atoms: _262  and  _263
REMARK  105  A    between atoms: _262  and  _265
REMARK  106  A    between atoms: _265  and  _266
REMARK  107  A    between atoms: _272  and  _274
REMARK  108  A    between atoms: _274  and  _275
REMARK  109  A    between atoms: _274  and  _277
REMARK  110  A    between atoms: _277  and  _278
REMARK  111  A    between atoms: _283  and  _285
REMARK  112  A    between atoms: _285  and  _286
REMARK  113  A    between atoms: _285  and  _288
REMARK  114  A    between atoms: _288  and  _289
REMARK  115  A    between atoms: _295  and  _297
REMARK  116  A    between atoms: _297  and  _298
REMARK  117  A    between atoms: _297  and  _300
REMARK  118  A    between atoms: _300  and  _301
REMARK  119  A    between atoms: _304  and  _306
REMARK  120  A    between atoms: _306  and  _307
REMARK  121  A    between atoms: _306  and  _309
REMARK                            x       y       z     vdW  Elec       q    Type
REMARK                         _______ _______ _______ _____ _____    ______ ____
ROOT
ATOM      1  CA  ARG A   1      20.005   3.440  33.906  0.00  0.00    +0.145 C 
ENDROOT
BRANCH   1   2
ATOM      2  C   ARG A   1      20.208   4.213  32.580  0.00  0.00    +0.238 C 
ATOM      3  N   PHE A   2      19.527   5.355  32.376  0.00  0.00    -0.298 N 
ATOM      4  H   PHE A   2      18.920   5.723  33.136  0.00  0.00    +0.150 HD
ATOM      5  O   ARG A   1      20.995   3.755  31.753  0.00  0.00    -0.274 OA
BRANCH   3   6
ATOM      6  CA  PHE A   2      19.615   6.101  31.107  0.00  0.00    +0.141 C 
BRANCH   6   7
ATOM      7  C   PHE A   2      21.037   6.599  30.906  0.00  0.00    +0.227 C 
ATOM      8  O   PHE A   2      21.690   7.039  31.857  0.00  0.00    -0.286 OA
ENDBRANCH   6   7
BRANCH   6   9
ATOM      9  CB  PHE A   2      18.567   7.224  31.000  0.00  0.00    +0.054 C 
BRANCH   9  10
ATOM     10  CG  PHE A   2      17.175   6.787  30.558  0.00  0.00    -0.020 A 
ATOM     11  CD2 PHE A   2      16.632   5.585  30.982  0.00  0.00    -0.004 A 
ATOM     12  CE2 PHE A   2      15.351   5.198  30.583  0.00  0.00    -0.000 A 
ATOM     13  CZ  PHE A   2      14.643   5.965  29.690  0.00  0.00    -0.000 A 
ATOM     14  CE1 PHE A   2      15.172   7.139  29.243  0.00  0.00    -0.000 A 
ATOM     15  CD1 PHE A   2      16.440   7.551  29.667  0.00  0.00    -0.004 A 
ENDBRANCH   9  10
ENDBRANCH   6   9
ENDBRANCH   3   6
ENDBRANCH   1   2
BRANCH   1  16
ATOM     16  N   ARG A   1      19.482   4.244  35.018  0.00  0.00    -0.238 NA
ATOM     17  H   ARG A   1      18.515   4.072  35.359  0.00  0.00    +0.142 HD
ENDBRANCH   1  16
BRANCH   1  18
ATOM     18  CB  ARG A   1      19.103   2.234  33.662  0.00  0.00    +0.030 C 
BRANCH  18  19
ATOM     19  CG  ARG A   1      17.762   2.530  32.985  0.00  0.00    +0.045 C 
BRANCH  19  20
ATOM     20  CD  ARG A   1      16.893   1.313  33.083  0.00  0.00    +0.174 C 
BRANCH  20  21
ATOM     21  NE  ARG A   1      15.610   1.430  32.400  0.00  0.00    -0.265 N 
ATOM     22  CZ  ARG A   1      14.540   2.057  32.875  0.00  0.00    +0.342 C 
ATOM     23  NH2 ARG A   1      14.602   2.704  34.036  0.00  0.00    -0.292 N 
ATOM     24 HH21 ARG A   1      15.491   2.720  34.575  0.00  0.00    +0.255 HD
ATOM     25 HH22 ARG A   1      13.761   3.194  34.404  0.00  0.00    +0.255 HD
ATOM     26  NH1 ARG A   1      13.402   2.068  32.177  0.00  0.00    -0.292 N 
ATOM     27 HH11 ARG A   1      12.566   2.560  32.553  0.00  0.00    +0.255 HD
ATOM     28 HH12 ARG A   1      13.351   1.584  31.258  0.00  0.00    +0.255 HD
ATOM     29  HE  ARG A   1      15.526   0.986  31.463  0.00  0.00    +0.259 HD
ENDBRANCH  20  21
ENDBRANCH  19  20
ENDBRANCH  18  19
ENDBRANCH   1  18
TORSDOF 10
REMARK  Name = ../refined-set-2016/4bc5/4bc5_pocket.pdb
REMARK  121 active torsions:
REMARK  status: ('A' for Active; 'I' for Inactive)
REMARK    1  A    between atoms: _1  and  _3
REMARK    2  A    between atoms: _3  and  _4
REMARK    3  A    between atoms: _3  and  _6
REMARK    4  A    between atoms: _6  and  _7
REMARK    5  A    between atoms: _10  and  _12
REMARK    6  A    between atoms: _12  and  _13
REMARK    7  A    between atoms: _12  and  _15
REMARK    8  A    between atoms: _15  and  _16
REMARK    9  A    between atoms: _22  and  _24
REMARK   10  A    between atoms: _24  and  _25
REMARK   11  A    between atoms: _24  and  _27
REMARK   12  A    between atoms: _27  and  _28
REMARK   13  A    between atoms: _30  and  _32
REMARK   14  A    between atoms: _32  and  _33
REMARK   15  A    between atoms: _32  and  _35
REMARK   16  A    between atoms: _35  and  _36
REMARK   17  A    between atoms: _39  and  _41
REMARK   18  A    between atoms: _41  and  _42
REMARK   19  A    between atoms: _41  and  _44
REMARK   20  A    between atoms: _44  and  _45
REMARK   21  A    between atoms: _45  and  _46
REMARK   22  A    between atoms: _51  and  _53
REMARK   23  A    between atoms: _53  and  _54
REMARK   24  A    between atoms: _56  and  _58
REMARK   25  A    between atoms: _58  and  _59
REMARK   26  A    between atoms: _58  and  _61
REMARK   27  A    between atoms: _61  and  _62
REMARK   28  A    between atoms: _62  and  _63
REMARK   29  A    between atoms: _68  and  _70
REMARK   30  A    between atoms: _70  and  _71
REMARK   31  A    between atoms: _70  and  _73
REMARK   32  A    between atoms: _73  and  _74
REMARK   33  A    between atoms: _74  and  _75
REMARK   34  A    between atoms: _80  and  _82
REMARK   35  A    between atoms: _82  and  _83
REMARK   36  A    between atoms: _82  and  _85
REMARK   37  A    between atoms: _85  and  _86
REMARK   38  A    between atoms: _91  and  _93
REMARK   39  A    between atoms: _93  and  _94
REMARK   40  A    between atoms: _96  and  _98
REMARK   41  A    between atoms: _98  and  _99
REMARK   42  A    between atoms: _98  and  _101
REMARK   43  A    between atoms: _104  and  _106
REMARK   44  A    between atoms: _106  and  _107
REMARK   45  A    between atoms: _106  and  _109
REMARK   46  A    between atoms: _109  and  _110
REMARK   47  A    between atoms: _120  and  _122
REMARK   48  A    between atoms: _122  and  _123
REMARK   49  A    between atoms: _122  and  _125
REMARK   50  A    between atoms: _125  and  _126
REMARK   51  A    between atoms: _126  and  _127
REMARK   52  A    between atoms: _129  and  _131
REMARK   53  A    between atoms: _131  and  _132
REMARK   54  A    between atoms: _131  and  _134
REMARK   55  A    between atoms: _134  and  _135
REMARK   56  A    between atoms: _138  and  _140
REMARK   57  A    between atoms: _140  and  _141
REMARK   58  A    between atoms: _140  and  _143
REMARK   59  A    between atoms: _143  and  _144
REMARK   60  A    between atoms: _146  and  _148
REMARK   61  A    between atoms: _148  and  _149
REMARK   62  A    between atoms: _148  and  _151
REMARK   63  A    between atoms: _151  and  _152
REMARK   64  A    between atoms: _157  and  _158
REMARK   65  A    between atoms: _160  and  _162
REMARK   66  A    between atoms: _162  and  _163
REMARK   67  A    between atoms: _162  and  _165
REMARK   68  A    between atoms: _165  and  _166
REMARK   69  A    between atoms: _166  and  _167
REMARK   70  A    between atoms: _167  and  _168
REMARK   71  A    between atoms: _177  and  _179
REMARK   72  A    between atoms: _179  and  _180
REMARK   73  A    between atoms: _179  and  _182
REMARK   74  A    between atoms: _182  and  _183
REMARK   75  A    between atoms: _189  and  _191
REMARK   76  A    between atoms: _191  and  _192
REMARK   77  A    between atoms: _191  and  _194
REMARK   78  A    between atoms: _197  and  _199
REMARK   79  A    between atoms: _199  and  _200
REMARK   80  A    between atoms: _199  and  _202
REMARK   81  A    between atoms: _202  and  _203
REMARK   82  A    between atoms: _206  and  _208
REMARK   83  A    between atoms: _208  and  _209
REMARK   84  A    between atoms: _211  and  _213
REMARK   85  A    between atoms: _213  and  _214
REMARK   86  A    between atoms: _216  and  _218
REMARK   87  A    between atoms: _218  and  _219
REMARK   88  A    between atoms: _218  and  _221
REMARK   89  A    between atoms: _221  and  _222
REMARK   90  A    between atoms: _225  and  _227
REMARK   91  A    between atoms: _227  and  _228
REMARK   92  A    between atoms: _227  and  _230
REMARK   93  A    between atoms: _230  and  _231
REMARK   94  A    between atoms: _237  and  _238
REMARK   95  A    between atoms: _243  and  _245
REMARK   96  A    between atoms: _245  and  _246
REMARK   97  A    between atoms: _245  and  _248
REMARK   98  A    between atoms: _248  and  _249
REMARK   99  A    between atoms: _251  and  _253
REMARK  100  A    between atoms: _253  and  _254
REMARK  101  A    between atoms: _253  and  _256
REMARK  102  A    between atoms: _256  and  _257
REMARK  103  A    between atoms: _260  and  _262
REMARK  104  A    between atoms: _262  and  _263
REMARK  105  A    between atoms: _262  and  _265
REMARK  106  A    between atoms: _265  and  _266
REMARK  107  A    between atoms: _272  and  _274
REMARK  108  A    between atoms: _274  and  _275
REMARK  109  A    between atoms: _274  and  _277
REMARK  110  A    between atoms: _277  and  _278
REMARK  111  A    between atoms: _283  and  _285
REMARK  112  A    between atoms: _285  and  _286
REMARK  113  A    between atoms: _285  and  _288
REMARK  114  A    between atoms: _288  and  _289
REMARK  115  A    between atoms: _295  and  _297
REMARK  116  A    between atoms: _297  and  _298
REMARK  117  A    between atoms: _297  and  _300
REMARK  118  A    between atoms: _300  and  _301
REMARK  119  A    between atoms: _304  and  _306
REMARK  120  A    between atoms: _306  and  _307
REMARK  121  A    between atoms: _306  and  _309
REMARK                            x       y       z     vdW  Elec       q    Type
REMARK                         _______ _______ _______ _____ _____    ______ ____
ROOT
ATOM      1  CA  VAL A   1      24.724  -1.749  22.789  0.00  0.00    +0.133 C 
ENDROOT
BRANCH   1   2
ATOM      2  CB  VAL A   1      24.047  -2.751  23.769  0.00  0.00    +0.023 C 
ATOM      3  CG2 VAL A   1      24.527  -2.531  25.218  0.00  0.00    +0.002 C 
ATOM      4  CG1 VAL A   1      24.298  -4.196  23.321  0.00  0.00    +0.002 C 
ENDBRANCH   1   2
BRANCH   1   5
ATOM      5  N   VAL A   1      24.467  -0.343  23.117  0.00  0.00    -0.239 NA
ATOM      6  H   VAL A   1      23.834  -0.103  23.906  0.00  0.00    +0.142 HD
ENDBRANCH   1   5
BRANCH   1   7
ATOM      7  C   VAL A   1      24.285  -1.997  21.313  0.00  0.00    +0.224 C 
ATOM      8  O   VAL A   1      24.975  -2.674  20.561  0.00  0.00    -0.287 OA
ENDBRANCH   1   7
TORSDOF 3
REMARK  Name = ../refined-set-2016/4bc5/4bc5_pocket.pdb
REMARK  121 active torsions:
REMARK  status: ('A' for Active; 'I' for Inactive)
REMARK    1  A    between atoms: _1  and  _3
REMARK    2  A    between atoms: _3  and  _4
REMARK    3  A    between atoms: _3  and  _6
REMARK    4  A    between atoms: _6  and  _7
REMARK    5  A    between atoms: _10  and  _12
REMARK    6  A    between atoms: _12  and  _13
REMARK    7  A    between atoms: _12  and  _15
REMARK    8  A    between atoms: _15  and  _16
REMARK    9  A    between atoms: _22  and  _24
REMARK   10  A    between atoms: _24  and  _25
REMARK   11  A    between atoms: _24  and  _27
REMARK   12  A    between atoms: _27  and  _28
REMARK   13  A    between atoms: _30  and  _32
REMARK   14  A    between atoms: _32  and  _33
REMARK   15  A    between atoms: _32  and  _35
REMARK   16  A    between atoms: _35  and  _36
REMARK   17  A    between atoms: _39  and  _41
REMARK   18  A    between atoms: _41  and  _42
REMARK   19  A    between atoms: _41  and  _44
REMARK   20  A    between atoms: _44  and  _45
REMARK   21  A    between atoms: _45  and  _46
REMARK   22  A    between atoms: _51  and  _53
REMARK   23  A    between atoms: _53  and  _54
REMARK   24  A    between atoms: _56  and  _58
REMARK   25  A    between atoms: _58  and  _59
REMARK   26  A    between atoms: _58  and  _61
REMARK   27  A    between atoms: _61  and  _62
REMARK   28  A    between atoms: _62  and  _63
REMARK   29  A    between atoms: _68  and  _70
REMARK   30  A    between atoms: _70  and  _71
REMARK   31  A    between atoms: _70  and  _73
REMARK   32  A    between atoms: _73  and  _74
REMARK   33  A    between atoms: _74  and  _75
REMARK   34  A    between atoms: _80  and  _82
REMARK   35  A    between atoms: _82  and  _83
REMARK   36  A    between atoms: _82  and  _85
REMARK   37  A    between atoms: _85  and  _86
REMARK   38  A    between atoms: _91  and  _93
REMARK   39  A    between atoms: _93  and  _94
REMARK   40  A    between atoms: _96  and  _98
REMARK   41  A    between atoms: _98  and  _99
REMARK   42  A    between atoms: _98  and  _101
REMARK   43  A    between atoms: _104  and  _106
REMARK   44  A    between atoms: _106  and  _107
REMARK   45  A    between atoms: _106  and  _109
REMARK   46  A    between atoms: _109  and  _110
REMARK   47  A    between atoms: _120  and  _122
REMARK   48  A    between atoms: _122  and  _123
REMARK   49  A    between atoms: _122  and  _125
REMARK   50  A    between atoms: _125  and  _126
REMARK   51  A    between atoms: _126  and  _127
REMARK   52  A    between atoms: _129  and  _131
REMARK   53  A    between atoms: _131  and  _132
REMARK   54  A    between atoms: _131  and  _134
REMARK   55  A    between atoms: _134  and  _135
REMARK   56  A    between atoms: _138  and  _140
REMARK   57  A    between atoms: _140  and  _141
REMARK   58  A    between atoms: _140  and  _143
REMARK   59  A    between atoms: _143  and  _144
REMARK   60  A    between atoms: _146  and  _148
REMARK   61  A    between atoms: _148  and  _149
REMARK   62  A    between atoms: _148  and  _151
REMARK   63  A    between atoms: _151  and  _152
REMARK   64  A    between atoms: _157  and  _158
REMARK   65  A    between atoms: _160  and  _162
REMARK   66  A    between atoms: _162  and  _163
REMARK   67  A    between atoms: _162  and  _165
REMARK   68  A    between atoms: _165  and  _166
REMARK   69  A    between atoms: _166  and  _167
REMARK   70  A    between atoms: _167  and  _168
REMARK   71  A    between atoms: _177  and  _179
REMARK   72  A    between atoms: _179  and  _180
REMARK   73  A    between atoms: _179  and  _182
REMARK   74  A    between atoms: _182  and  _183
REMARK   75  A    between atoms: _189  and  _191
REMARK   76  A    between atoms: _191  and  _192
REMARK   77  A    between atoms: _191  and  _194
REMARK   78  A    between atoms: _197  and  _199
REMARK   79  A    between atoms: _199  and  _200
REMARK   80  A    between atoms: _199  and  _202
REMARK   81  A    between atoms: _202  and  _203
REMARK   82  A    between atoms: _206  and  _208
REMARK   83  A    between atoms: _208  and  _209
REMARK   84  A    between atoms: _211  and  _213
REMARK   85  A    between atoms: _213  and  _214
REMARK   86  A    between atoms: _216  and  _218
REMARK   87  A    between atoms: _218  and  _219
REMARK   88  A    between atoms: _218  and  _221
REMARK   89  A    between atoms: _221  and  _222
REMARK   90  A    between atoms: _225  and  _227
REMARK   91  A    between atoms: _227  and  _228
REMARK   92  A    between atoms: _227  and  _230
REMARK   93  A    between atoms: _230  and  _231
REMARK   94  A    between atoms: _237  and  _238
REMARK   95  A    between atoms: _243  and  _245
REMARK   96  A    between atoms: _245  and  _246
REMARK   97  A    between atoms: _245  and  _248
REMARK   98  A    between atoms: _248  and  _249
REMARK   99  A    between atoms: _251  and  _253
REMARK  100  A    between atoms: _253  and  _254
REMARK  101  A    between atoms: _253  and  _256
REMARK  102  A    between atoms: _256  and  _257
REMARK  103  A    between atoms: _260  and  _262
REMARK  104  A    between atoms: _262  and  _263
REMARK  105  A    between atoms: _262  and  _265
REMARK  106  A    between atoms: _265  and  _266
REMARK  107  A    between atoms: _272  and  _274
REMARK  108  A    between atoms: _274  and  _275
REMARK  109  A    between atoms: _274  and  _277
REMARK  110  A    between atoms: _277  and  _278
REMARK  111  A    between atoms: _283  and  _285
REMARK  112  A    between atoms: _285  and  _286
REMARK  113  A    between atoms: _285  and  _288
REMARK  114  A    between atoms: _288  and  _289
REMARK  115  A    between atoms: _295  and  _297
REMARK  116  A    between atoms: _297  and  _298
REMARK  117  A    between atoms: _297  and  _300
REMARK  118  A    between atoms: _300  and  _301
REMARK  119  A    between atoms: _304  and  _306
REMARK  120  A    between atoms: _306  and  _307
REMARK  121  A    between atoms: _306  and  _309
REMARK                            x       y       z     vdW  Elec       q    Type
REMARK                         _______ _______ _______ _____ _____    ______ ____
ROOT
ATOM      1  CA  ASP A   1      17.335   3.727  21.047  0.00  0.00    +0.144 C 
ENDROOT
BRANCH   1   2
ATOM      2  N   ASP A   1      16.500   4.096  19.891  0.00  0.00    -0.239 NA
ATOM      3  H   ASP A   1      16.797   3.811  18.936  0.00  0.00    +0.142 HD
ENDBRANCH   1   2
BRANCH   1   4
ATOM      4  C   ASP A   1      18.052   4.977  21.580  0.00  0.00    +0.225 C 
ATOM      5  O   ASP A   1      18.293   5.097  22.787  0.00  0.00    -0.287 OA
ENDBRANCH   1   4
BRANCH   1   6
ATOM      6  CB  ASP A   1      18.359   2.629  20.696  0.00  0.00    +0.139 C 
BRANCH   6   7
ATOM      7  CG  ASP A   1      18.626   1.649  21.829  0.00  0.00    +0.367 C 
ATOM      8  OD2 ASP A   1      17.863   1.665  22.838  0.00  0.00    -0.246 OA
ATOM      9  OD1 ASP A   1      19.593   0.866  21.716  0.00  0.00    -0.246 OA
ENDBRANCH   6   7
ENDBRANCH   1   6
TORSDOF 4
REMARK  Name = ../refined-set-2016/4bc5/4bc5_pocket.pdb
REMARK  121 active torsions:
REMARK  status: ('A' for Active; 'I' for Inactive)
REMARK    1  A    between atoms: _1  and  _3
REMARK    2  A    between atoms: _3  and  _4
REMARK    3  A    between atoms: _3  and  _6
REMARK    4  A    between atoms: _6  and  _7
REMARK    5  A    between atoms: _10  and  _12
REMARK    6  A    between atoms: _12  and  _13
REMARK    7  A    between atoms: _12  and  _15
REMARK    8  A    between atoms: _15  and  _16
REMARK    9  A    between atoms: _22  and  _24
REMARK   10  A    between atoms: _24  and  _25
REMARK   11  A    between atoms: _24  and  _27
REMARK   12  A    between atoms: _27  and  _28
REMARK   13  A    between atoms: _30  and  _32
REMARK   14  A    between atoms: _32  and  _33
REMARK   15  A    between atoms: _32  and  _35
REMARK   16  A    between atoms: _35  and  _36
REMARK   17  A    between atoms: _39  and  _41
REMARK   18  A    between atoms: _41  and  _42
REMARK   19  A    between atoms: _41  and  _44
REMARK   20  A    between atoms: _44  and  _45
REMARK   21  A    between atoms: _45  and  _46
REMARK   22  A    between atoms: _51  and  _53
REMARK   23  A    between atoms: _53  and  _54
REMARK   24  A    between atoms: _56  and  _58
REMARK   25  A    between atoms: _58  and  _59
REMARK   26  A    between atoms: _58  and  _61
REMARK   27  A    between atoms: _61  and  _62
REMARK   28  A    between atoms: _62  and  _63
REMARK   29  A    between atoms: _68  and  _70
REMARK   30  A    between atoms: _70  and  _71
REMARK   31  A    between atoms: _70  and  _73
REMARK   32  A    between atoms: _73  and  _74
REMARK   33  A    between atoms: _74  and  _75
REMARK   34  A    between atoms: _80  and  _82
REMARK   35  A    between atoms: _82  and  _83
REMARK   36  A    between atoms: _82  and  _85
REMARK   37  A    between atoms: _85  and  _86
REMARK   38  A    between atoms: _91  and  _93
REMARK   39  A    between atoms: _93  and  _94
REMARK   40  A    between atoms: _96  and  _98
REMARK   41  A    between atoms: _98  and  _99
REMARK   42  A    between atoms: _98  and  _101
REMARK   43  A    between atoms: _104  and  _106
REMARK   44  A    between atoms: _106  and  _107
REMARK   45  A    between atoms: _106  and  _109
REMARK   46  A    between atoms: _109  and  _110
REMARK   47  A    between atoms: _120  and  _122
REMARK   48  A    between atoms: _122  and  _123
REMARK   49  A    between atoms: _122  and  _125
REMARK   50  A    between atoms: _125  and  _126
REMARK   51  A    between atoms: _126  and  _127
REMARK   52  A    between atoms: _129  and  _131
REMARK   53  A    between atoms: _131  and  _132
REMARK   54  A    between atoms: _131  and  _134
REMARK   55  A    between atoms: _134  and  _135
REMARK   56  A    between atoms: _138  and  _140
REMARK   57  A    between atoms: _140  and  _141
REMARK   58  A    between atoms: _140  and  _143
REMARK   59  A    between atoms: _143  and  _144
REMARK   60  A    between atoms: _146  and  _148
REMARK   61  A    between atoms: _148  and  _149
REMARK   62  A    between atoms: _148  and  _151
REMARK   63  A    between atoms: _151  and  _152
REMARK   64  A    between atoms: _157  and  _158
REMARK   65  A    between atoms: _160  and  _162
REMARK   66  A    between atoms: _162  and  _163
REMARK   67  A    between atoms: _162  and  _165
REMARK   68  A    between atoms: _165  and  _166
REMARK   69  A    between atoms: _166  and  _167
REMARK   70  A    between atoms: _167  and  _168
REMARK   71  A    between atoms: _177  and  _179
REMARK   72  A    between atoms: _179  and  _180
REMARK   73  A    between atoms: _179  and  _182
REMARK   74  A    between atoms: _182  and  _183
REMARK   75  A    between atoms: _189  and  _191
REMARK   76  A    between atoms: _191  and  _192
REMARK   77  A    between atoms: _191  and  _194
REMARK   78  A    between atoms: _197  and  _199
REMARK   79  A    between atoms: _199  and  _200
REMARK   80  A    between atoms: _199  and  _202
REMARK   81  A    between atoms: _202  and  _203
REMARK   82  A    between atoms: _206  and  _208
REMARK   83  A    between atoms: _208  and  _209
REMARK   84  A    between atoms: _211  and  _213
REMARK   85  A    between atoms: _213  and  _214
REMARK   86  A    between atoms: _216  and  _218
REMARK   87  A    between atoms: _218  and  _219
REMARK   88  A    between atoms: _218  and  _221
REMARK   89  A    between atoms: _221  and  _222
REMARK   90  A    between atoms: _225  and  _227
REMARK   91  A    between atoms: _227  and  _228
REMARK   92  A    between atoms: _227  and  _230
REMARK   93  A    between atoms: _230  and  _231
REMARK   94  A    between atoms: _237  and  _238
REMARK   95  A    between atoms: _243  and  _245
REMARK   96  A    between atoms: _245  and  _246
REMARK   97  A    between atoms: _245  and  _248
REMARK   98  A    between atoms: _248  and  _249
REMARK   99  A    between atoms: _251  and  _253
REMARK  100  A    between atoms: _253  and  _254
REMARK  101  A    between atoms: _253  and  _256
REMARK  102  A    between atoms: _256  and  _257
REMARK  103  A    between atoms: _260  and  _262
REMARK  104  A    between atoms: _262  and  _263
REMARK  105  A    between atoms: _262  and  _265
REMARK  106  A    between atoms: _265  and  _266
REMARK  107  A    between atoms: _272  and  _274
REMARK  108  A    between atoms: _274  and  _275
REMARK  109  A    between atoms: _274  and  _277
REMARK  110  A    between atoms: _277  and  _278
REMARK  111  A    between atoms: _283  and  _285
REMARK  112  A    between atoms: _285  and  _286
REMARK  113  A    between atoms: _285  and  _288
REMARK  114  A    between atoms: _288  and  _289
REMARK  115  A    between atoms: _295  and  _297
REMARK  116  A    between atoms: _297  and  _298
REMARK  117  A    between atoms: _297  and  _300
REMARK  118  A    between atoms: _300  and  _301
REMARK  119  A    between atoms: _304  and  _306
REMARK  120  A    between atoms: _306  and  _307
REMARK  121  A    between atoms: _306  and  _309
REMARK                            x       y       z     vdW  Elec       q    Type
REMARK                         _______ _______ _______ _____ _____    ______ ____
ROOT
ATOM      1  CA  GLY A   1      16.799   6.107  26.057  0.00  0.00    +0.156 C 
ENDROOT
BRANCH   1   2
ATOM      2  N   GLY A   1      16.633   6.663  24.715  0.00  0.00    -0.238 NA
ATOM      3  H   GLY A   1      17.157   6.233  23.926  0.00  0.00    +0.142 HD
ENDBRANCH   1   2
BRANCH   1   4
ATOM      4  C   GLY A   1      18.056   6.593  26.765  0.00  0.00    +0.226 C 
ATOM      5  O   GLY A   1      18.660   5.842  27.520  0.00  0.00    -0.287 OA
ENDBRANCH   1   4
TORSDOF 2
REMARK  Name = ../refined-set-2016/4bc5/4bc5_pocket.pdb
REMARK  121 active torsions:
REMARK  status: ('A' for Active; 'I' for Inactive)
REMARK    1  A    between atoms: _1  and  _3
REMARK    2  A    between atoms: _3  and  _4
REMARK    3  A    between atoms: _3  and  _6
REMARK    4  A    between atoms: _6  and  _7
REMARK    5  A    between atoms: _10  and  _12
REMARK    6  A    between atoms: _12  and  _13
REMARK    7  A    between atoms: _12  and  _15
REMARK    8  A    between atoms: _15  and  _16
REMARK    9  A    between atoms: _22  and  _24
REMARK   10  A    between atoms: _24  and  _25
REMARK   11  A    between atoms: _24  and  _27
REMARK   12  A    between atoms: _27  and  _28
REMARK   13  A    between atoms: _30  and  _32
REMARK   14  A    between atoms: _32  and  _33
REMARK   15  A    between atoms: _32  and  _35
REMARK   16  A    between atoms: _35  and  _36
REMARK   17  A    between atoms: _39  and  _41
REMARK   18  A    between atoms: _41  and  _42
REMARK   19  A    between atoms: _41  and  _44
REMARK   20  A    between atoms: _44  and  _45
REMARK   21  A    between atoms: _45  and  _46
REMARK   22  A    between atoms: _51  and  _53
REMARK   23  A    between atoms: _53  and  _54
REMARK   24  A    between atoms: _56  and  _58
REMARK   25  A    between atoms: _58  and  _59
REMARK   26  A    between atoms: _58  and  _61
REMARK   27  A    between atoms: _61  and  _62
REMARK   28  A    between atoms: _62  and  _63
REMARK   29  A    between atoms: _68  and  _70
REMARK   30  A    between atoms: _70  and  _71
REMARK   31  A    between atoms: _70  and  _73
REMARK   32  A    between atoms: _73  and  _74
REMARK   33  A    between atoms: _74  and  _75
REMARK   34  A    between atoms: _80  and  _82
REMARK   35  A    between atoms: _82  and  _83
REMARK   36  A    between atoms: _82  and  _85
REMARK   37  A    between atoms: _85  and  _86
REMARK   38  A    between atoms: _91  and  _93
REMARK   39  A    between atoms: _93  and  _94
REMARK   40  A    between atoms: _96  and  _98
REMARK   41  A    between atoms: _98  and  _99
REMARK   42  A    between atoms: _98  and  _101
REMARK   43  A    between atoms: _104  and  _106
REMARK   44  A    between atoms: _106  and  _107
REMARK   45  A    between atoms: _106  and  _109
REMARK   46  A    between atoms: _109  and  _110
REMARK   47  A    between atoms: _120  and  _122
REMARK   48  A    between atoms: _122  and  _123
REMARK   49  A    between atoms: _122  and  _125
REMARK   50  A    between atoms: _125  and  _126
REMARK   51  A    between atoms: _126  and  _127
REMARK   52  A    between atoms: _129  and  _131
REMARK   53  A    between atoms: _131  and  _132
REMARK   54  A    between atoms: _131  and  _134
REMARK   55  A    between atoms: _134  and  _135
REMARK   56  A    between atoms: _138  and  _140
REMARK   57  A    between atoms: _140  and  _141
REMARK   58  A    between atoms: _140  and  _143
REMARK   59  A    between atoms: _143  and  _144
REMARK   60  A    between atoms: _146  and  _148
REMARK   61  A    between atoms: _148  and  _149
REMARK   62  A    between atoms: _148  and  _151
REMARK   63  A    between atoms: _151  and  _152
REMARK   64  A    between atoms: _157  and  _158
REMARK   65  A    between atoms: _160  and  _162
REMARK   66  A    between atoms: _162  and  _163
REMARK   67  A    between atoms: _162  and  _165
REMARK   68  A    between atoms: _165  and  _166
REMARK   69  A    between atoms: _166  and  _167
REMARK   70  A    between atoms: _167  and  _168
REMARK   71  A    between atoms: _177  and  _179
REMARK   72  A    between atoms: _179  and  _180
REMARK   73  A    between atoms: _179  and  _182
REMARK   74  A    between atoms: _182  and  _183
REMARK   75  A    between atoms: _189  and  _191
REMARK   76  A    between atoms: _191  and  _192
REMARK   77  A    between atoms: _191  and  _194
REMARK   78  A    between atoms: _197  and  _199
REMARK   79  A    between atoms: _199  and  _200
REMARK   80  A    between atoms: _199  and  _202
REMARK   81  A    between atoms: _202  and  _203
REMARK   82  A    between atoms: _206  and  _208
REMARK   83  A    between atoms: _208  and  _209
REMARK   84  A    between atoms: _211  and  _213
REMARK   85  A    between atoms: _213  and  _214
REMARK   86  A    between atoms: _216  and  _218
REMARK   87  A    between atoms: _218  and  _219
REMARK   88  A    between atoms: _218  and  _221
REMARK   89  A    between atoms: _221  and  _222
REMARK   90  A    between atoms: _225  and  _227
REMARK   91  A    between atoms: _227  and  _228
REMARK   92  A    between atoms: _227  and  _230
REMARK   93  A    between atoms: _230  and  _231
REMARK   94  A    between atoms: _237  and  _238
REMARK   95  A    between atoms: _243  and  _245
REMARK   96  A    between atoms: _245  and  _246
REMARK   97  A    between atoms: _245  and  _248
REMARK   98  A    between atoms: _248  and  _249
REMARK   99  A    between atoms: _251  and  _253
REMARK  100  A    between atoms: _253  and  _254
REMARK  101  A    between atoms: _253  and  _256
REMARK  102  A    between atoms: _256  and  _257
REMARK  103  A    between atoms: _260  and  _262
REMARK  104  A    between atoms: _262  and  _263
REMARK  105  A    between atoms: _262  and  _265
REMARK  106  A    between atoms: _265  and  _266
REMARK  107  A    between atoms: _272  and  _274
REMARK  108  A    between atoms: _274  and  _275
REMARK  109  A    between atoms: _274  and  _277
REMARK  110  A    between atoms: _277  and  _278
REMARK  111  A    between atoms: _283  and  _285
REMARK  112  A    between atoms: _285  and  _286
REMARK  113  A    between atoms: _285  and  _288
REMARK  114  A    between atoms: _288  and  _289
REMARK  115  A    between atoms: _295  and  _297
REMARK  116  A    between atoms: _297  and  _298
REMARK  117  A    between atoms: _297  and  _300
REMARK  118  A    between atoms: _300  and  _301
REMARK  119  A    between atoms: _304  and  _306
REMARK  120  A    between atoms: _306  and  _307
REMARK  121  A    between atoms: _306  and  _309
REMARK                            x       y       z     vdW  Elec       q    Type
REMARK                         _______ _______ _______ _____ _____    ______ ____
ROOT
ATOM      1  C   ASP A   2      13.623  -3.942  22.326  0.00  0.00    +0.241 C 
ATOM      2  N   ASN A   3      13.198  -2.954  23.128  0.00  0.00    -0.297 N 
ATOM      3  H   ASN A   3      13.882  -2.422  23.702  0.00  0.00    +0.150 HD
ATOM      4  O   ASP A   2      12.864  -4.557  21.595  0.00  0.00    -0.273 OA
ENDROOT
BRANCH   1   5
ATOM      5  CA  ASP A   2      15.129  -4.230  22.227  0.00  0.00    +0.160 C 
BRANCH   5   7
ATOM      6  C   GLY A   1      15.836  -2.171  21.166  0.00  0.00    +0.240 C 
ATOM      7  N   ASP A   2      15.944  -3.018  22.187  0.00  0.00    -0.297 N 
ATOM      8  H   ASP A   2      16.611  -2.816  22.959  0.00  0.00    +0.150 HD
ATOM      9  O   GLY A   1      15.056  -2.346  20.221  0.00  0.00    -0.274 OA
BRANCH   6  10
ATOM     10  CA  GLY A   1      16.706  -0.946  21.207  0.00  0.00    +0.169 C 
BRANCH  10  11
ATOM     11  N   GLY A   1      16.879  -0.366  19.882  0.00  0.00    -0.236 NA
ATOM     12  H   GLY A   1      16.404   0.534  19.667  0.00  0.00    +0.142 HD
ENDBRANCH  10  11
ENDBRANCH   6  10
ENDBRANCH   5   7
BRANCH   5  13
ATOM     13  CB  ASP A   2      15.628  -5.240  23.277  0.00  0.00    +0.143 C 
BRANCH  13  14
ATOM     14  CG  ASP A   2      15.567  -4.853  24.759  0.00  0.00    +0.367 C 
ATOM     15  OD2 ASP A   2      15.831  -5.720  25.601  0.00  0.00    -0.246 OA
ATOM     16  OD1 ASP A   2      15.209  -3.683  25.068  0.00  0.00    -0.246 OA
ENDBRANCH  13  14
ENDBRANCH   5  13
ENDBRANCH   1   5
BRANCH   2  17
ATOM     17  CA  ASN A   3      11.755  -2.619  23.198  0.00  0.00    +0.158 C 
BRANCH  17  18
ATOM     18  C   ASN A   3      11.230  -2.048  21.884  0.00  0.00    +0.244 C 
ATOM     19  O   ASN A   3      10.238  -2.569  21.379  0.00  0.00    -0.273 OA
ATOM     20  N   PRO A   4      11.927  -1.082  21.259  0.00  0.00    -0.273 N 
ATOM     21  CD  PRO A   4      13.043  -0.275  21.792  0.00  0.00    +0.094 C 
ATOM     22  CG  PRO A   4      13.108   0.887  20.847  0.00  0.00    +0.024 C 
ATOM     23  CB  PRO A   4      12.556   0.452  19.560  0.00  0.00    +0.030 C 
ATOM     24  CA  PRO A   4      11.520  -0.627  19.906  0.00  0.00    +0.140 C 
BRANCH  24  25
ATOM     25  C   PRO A   4      11.490  -1.752  18.856  0.00  0.00    +0.227 C 
ATOM     26  O   PRO A   4      10.564  -1.832  18.072  0.00  0.00    -0.286 OA
ENDBRANCH  24  25
ENDBRANCH  17  18
BRANCH  17  27
ATOM     27  CB  ASN A   3      11.391  -1.807  24.421  0.00  0.00    +0.114 C 
BRANCH  27  28
ATOM     28  CG  ASN A   3      11.678  -2.580  25.700  0.00  0.00    +0.222 C 
ATOM     29  ND2 ASN A   3      12.701  -2.196  26.424  0.00  0.00    -0.329 N 
ATOM     30 HD21 ASN A   3      13.037  -2.792  27.207  0.00  0.00    +0.145 HD
ATOM     31 HD22 ASN A   3      13.176  -1.295  26.216  0.00  0.00    +0.145 HD
ATOM     32  OD1 ASN A   3      11.107  -3.646  25.938  0.00  0.00    -0.275 OA
ENDBRANCH  27  28
ENDBRANCH  17  27
ENDBRANCH   2  17
TORSDOF 11
REMARK  Name = ../refined-set-2016/4bc5/4bc5_pocket.pdb
REMARK  121 active torsions:
REMARK  status: ('A' for Active; 'I' for Inactive)
REMARK    1  A    between atoms: _1  and  _3
REMARK    2  A    between atoms: _3  and  _4
REMARK    3  A    between atoms: _3  and  _6
REMARK    4  A    between atoms: _6  and  _7
REMARK    5  A    between atoms: _10  and  _12
REMARK    6  A    between atoms: _12  and  _13
REMARK    7  A    between atoms: _12  and  _15
REMARK    8  A    between atoms: _15  and  _16
REMARK    9  A    between atoms: _22  and  _24
REMARK   10  A    between atoms: _24  and  _25
REMARK   11  A    between atoms: _24  and  _27
REMARK   12  A    between atoms: _27  and  _28
REMARK   13  A    between atoms: _30  and  _32
REMARK   14  A    between atoms: _32  and  _33
REMARK   15  A    between atoms: _32  and  _35
REMARK   16  A    between atoms: _35  and  _36
REMARK   17  A    between atoms: _39  and  _41
REMARK   18  A    between atoms: _41  and  _42
REMARK   19  A    between atoms: _41  and  _44
REMARK   20  A    between atoms: _44  and  _45
REMARK   21  A    between atoms: _45  and  _46
REMARK   22  A    between atoms: _51  and  _53
REMARK   23  A    between atoms: _53  and  _54
REMARK   24  A    between atoms: _56  and  _58
REMARK   25  A    between atoms: _58  and  _59
REMARK   26  A    between atoms: _58  and  _61
REMARK   27  A    between atoms: _61  and  _62
REMARK   28  A    between atoms: _62  and  _63
REMARK   29  A    between atoms: _68  and  _70
REMARK   30  A    between atoms: _70  and  _71
REMARK   31  A    between atoms: _70  and  _73
REMARK   32  A    between atoms: _73  and  _74
REMARK   33  A    between atoms: _74  and  _75
REMARK   34  A    between atoms: _80  and  _82
REMARK   35  A    between atoms: _82  and  _83
REMARK   36  A    between atoms: _82  and  _85
REMARK   37  A    between atoms: _85  and  _86
REMARK   38  A    between atoms: _91  and  _93
REMARK   39  A    between atoms: _93  and  _94
REMARK   40  A    between atoms: _96  and  _98
REMARK   41  A    between atoms: _98  and  _99
REMARK   42  A    between atoms: _98  and  _101
REMARK   43  A    between atoms: _104  and  _106
REMARK   44  A    between atoms: _106  and  _107
REMARK   45  A    between atoms: _106  and  _109
REMARK   46  A    between atoms: _109  and  _110
REMARK   47  A    between atoms: _120  and  _122
REMARK   48  A    between atoms: _122  and  _123
REMARK   49  A    between atoms: _122  and  _125
REMARK   50  A    between atoms: _125  and  _126
REMARK   51  A    between atoms: _126  and  _127
REMARK   52  A    between atoms: _129  and  _131
REMARK   53  A    between atoms: _131  and  _132
REMARK   54  A    between atoms: _131  and  _134
REMARK   55  A    between atoms: _134  and  _135
REMARK   56  A    between atoms: _138  and  _140
REMARK   57  A    between atoms: _140  and  _141
REMARK   58  A    between atoms: _140  and  _143
REMARK   59  A    between atoms: _143  and  _144
REMARK   60  A    between atoms: _146  and  _148
REMARK   61  A    between atoms: _148  and  _149
REMARK   62  A    between atoms: _148  and  _151
REMARK   63  A    between atoms: _151  and  _152
REMARK   64  A    between atoms: _157  and  _158
REMARK   65  A    between atoms: _160  and  _162
REMARK   66  A    between atoms: _162  and  _163
REMARK   67  A    between atoms: _162  and  _165
REMARK   68  A    between atoms: _165  and  _166
REMARK   69  A    between atoms: _166  and  _167
REMARK   70  A    between atoms: _167  and  _168
REMARK   71  A    between atoms: _177  and  _179
REMARK   72  A    between atoms: _179  and  _180
REMARK   73  A    between atoms: _179  and  _182
REMARK   74  A    between atoms: _182  and  _183
REMARK   75  A    between atoms: _189  and  _191
REMARK   76  A    between atoms: _191  and  _192
REMARK   77  A    between atoms: _191  and  _194
REMARK   78  A    between atoms: _197  and  _199
REMARK   79  A    between atoms: _199  and  _200
REMARK   80  A    between atoms: _199  and  _202
REMARK   81  A    between atoms: _202  and  _203
REMARK   82  A    between atoms: _206  and  _208
REMARK   83  A    between atoms: _208  and  _209
REMARK   84  A    between atoms: _211  and  _213
REMARK   85  A    between atoms: _213  and  _214
REMARK   86  A    between atoms: _216  and  _218
REMARK   87  A    between atoms: _218  and  _219
REMARK   88  A    between atoms: _218  and  _221
REMARK   89  A    between atoms: _221  and  _222
REMARK   90  A    between atoms: _225  and  _227
REMARK   91  A    between atoms: _227  and  _228
REMARK   92  A    between atoms: _227  and  _230
REMARK   93  A    between atoms: _230  and  _231
REMARK   94  A    between atoms: _237  and  _238
REMARK   95  A    between atoms: _243  and  _245
REMARK   96  A    between atoms: _245  and  _246
REMARK   97  A    between atoms: _245  and  _248
REMARK   98  A    between atoms: _248  and  _249
REMARK   99  A    between atoms: _251  and  _253
REMARK  100  A    between atoms: _253  and  _254
REMARK  101  A    between atoms: _253  and  _256
REMARK  102  A    between atoms: _256  and  _257
REMARK  103  A    between atoms: _260  and  _262
REMARK  104  A    between atoms: _262  and  _263
REMARK  105  A    between atoms: _262  and  _265
REMARK  106  A    between atoms: _265  and  _266
REMARK  107  A    between atoms: _272  and  _274
REMARK  108  A    between atoms: _274  and  _275
REMARK  109  A    between atoms: _274  and  _277
REMARK  110  A    between atoms: _277  and  _278
REMARK  111  A    between atoms: _283  and  _285
REMARK  112  A    between atoms: _285  and  _286
REMARK  113  A    between atoms: _285  and  _288
REMARK  114  A    between atoms: _288  and  _289
REMARK  115  A    between atoms: _295  and  _297
REMARK  116  A    between atoms: _297  and  _298
REMARK  117  A    between atoms: _297  and  _300
REMARK  118  A    between atoms: _300  and  _301
REMARK  119  A    between atoms: _304  and  _306
REMARK  120  A    between atoms: _306  and  _307
REMARK  121  A    between atoms: _306  and  _309
REMARK                            x       y       z     vdW  Elec       q    Type
REMARK                         _______ _______ _______ _____ _____    ______ ____
ROOT
ATOM      1  CA  SER A   1       9.725  -5.765  19.790  0.00  0.00    +0.163 C 
ENDROOT
BRANCH   1   2
ATOM      2  N   SER A   1      10.895  -4.928  19.450  0.00  0.00    -0.237 NA
ATOM      3  H   SER A   1      11.423  -4.470  20.220  0.00  0.00    +0.142 HD
ENDBRANCH   1   2
BRANCH   1   4
ATOM      4  C   SER A   1       8.446  -5.093  19.317  0.00  0.00    +0.227 C 
ATOM      5  O   SER A   1       7.521  -5.767  18.887  0.00  0.00    -0.287 OA
ENDBRANCH   1   4
BRANCH   1   6
ATOM      6  CB  SER A   1       9.674  -6.066  21.293  0.00  0.00    +0.162 C 
BRANCH   6   7
ATOM      7  OG  SER A   1      10.814  -6.807  21.685  0.00  0.00    -0.380 OA
ATOM      8  H   SER A   1      10.767  -6.993  22.656  0.00  0.00    +0.211 HD
ENDBRANCH   6   7
ENDBRANCH   1   6
TORSDOF 4
REMARK  Name = ../refined-set-2016/4bc5/4bc5_pocket.pdb
REMARK  121 active torsions:
REMARK  status: ('A' for Active; 'I' for Inactive)
REMARK    1  A    between atoms: _1  and  _3
REMARK    2  A    between atoms: _3  and  _4
REMARK    3  A    between atoms: _3  and  _6
REMARK    4  A    between atoms: _6  and  _7
REMARK    5  A    between atoms: _10  and  _12
REMARK    6  A    between atoms: _12  and  _13
REMARK    7  A    between atoms: _12  and  _15
REMARK    8  A    between atoms: _15  and  _16
REMARK    9  A    between atoms: _22  and  _24
REMARK   10  A    between atoms: _24  and  _25
REMARK   11  A    between atoms: _24  and  _27
REMARK   12  A    between atoms: _27  and  _28
REMARK   13  A    between atoms: _30  and  _32
REMARK   14  A    between atoms: _32  and  _33
REMARK   15  A    between atoms: _32  and  _35
REMARK   16  A    between atoms: _35  and  _36
REMARK   17  A    between atoms: _39  and  _41
REMARK   18  A    between atoms: _41  and  _42
REMARK   19  A    between atoms: _41  and  _44
REMARK   20  A    between atoms: _44  and  _45
REMARK   21  A    between atoms: _45  and  _46
REMARK   22  A    between atoms: _51  and  _53
REMARK   23  A    between atoms: _53  and  _54
REMARK   24  A    between atoms: _56  and  _58
REMARK   25  A    between atoms: _58  and  _59
REMARK   26  A    between atoms: _58  and  _61
REMARK   27  A    between atoms: _61  and  _62
REMARK   28  A    between atoms: _62  and  _63
REMARK   29  A    between atoms: _68  and  _70
REMARK   30  A    between atoms: _70  and  _71
REMARK   31  A    between atoms: _70  and  _73
REMARK   32  A    between atoms: _73  and  _74
REMARK   33  A    between atoms: _74  and  _75
REMARK   34  A    between atoms: _80  and  _82
REMARK   35  A    between atoms: _82  and  _83
REMARK   36  A    between atoms: _82  and  _85
REMARK   37  A    between atoms: _85  and  _86
REMARK   38  A    between atoms: _91  and  _93
REMARK   39  A    between atoms: _93  and  _94
REMARK   40  A    between atoms: _96  and  _98
REMARK   41  A    between atoms: _98  and  _99
REMARK   42  A    between atoms: _98  and  _101
REMARK   43  A    between atoms: _104  and  _106
REMARK   44  A    between atoms: _106  and  _107
REMARK   45  A    between atoms: _106  and  _109
REMARK   46  A    between atoms: _109  and  _110
REMARK   47  A    between atoms: _120  and  _122
REMARK   48  A    between atoms: _122  and  _123
REMARK   49  A    between atoms: _122  and  _125
REMARK   50  A    between atoms: _125  and  _126
REMARK   51  A    between atoms: _126  and  _127
REMARK   52  A    between atoms: _129  and  _131
REMARK   53  A    between atoms: _131  and  _132
REMARK   54  A    between atoms: _131  and  _134
REMARK   55  A    between atoms: _134  and  _135
REMARK   56  A    between atoms: _138  and  _140
REMARK   57  A    between atoms: _140  and  _141
REMARK   58  A    between atoms: _140  and  _143
REMARK   59  A    between atoms: _143  and  _144
REMARK   60  A    between atoms: _146  and  _148
REMARK   61  A    between atoms: _148  and  _149
REMARK   62  A    between atoms: _148  and  _151
REMARK   63  A    between atoms: _151  and  _152
REMARK   64  A    between atoms: _157  and  _158
REMARK   65  A    between atoms: _160  and  _162
REMARK   66  A    between atoms: _162  and  _163
REMARK   67  A    between atoms: _162  and  _165
REMARK   68  A    between atoms: _165  and  _166
REMARK   69  A    between atoms: _166  and  _167
REMARK   70  A    between atoms: _167  and  _168
REMARK   71  A    between atoms: _177  and  _179
REMARK   72  A    between atoms: _179  and  _180
REMARK   73  A    between atoms: _179  and  _182
REMARK   74  A    between atoms: _182  and  _183
REMARK   75  A    between atoms: _189  and  _191
REMARK   76  A    between atoms: _191  and  _192
REMARK   77  A    between atoms: _191  and  _194
REMARK   78  A    between atoms: _197  and  _199
REMARK   79  A    between atoms: _199  and  _200
REMARK   80  A    between atoms: _199  and  _202
REMARK   81  A    between atoms: _202  and  _203
REMARK   82  A    between atoms: _206  and  _208
REMARK   83  A    between atoms: _208  and  _209
REMARK   84  A    between atoms: _211  and  _213
REMARK   85  A    between atoms: _213  and  _214
REMARK   86  A    between atoms: _216  and  _218
REMARK   87  A    between atoms: _218  and  _219
REMARK   88  A    between atoms: _218  and  _221
REMARK   89  A    between atoms: _221  and  _222
REMARK   90  A    between atoms: _225  and  _227
REMARK   91  A    between atoms: _227  and  _228
REMARK   92  A    between atoms: _227  and  _230
REMARK   93  A    between atoms: _230  and  _231
REMARK   94  A    between atoms: _237  and  _238
REMARK   95  A    between atoms: _243  and  _245
REMARK   96  A    between atoms: _245  and  _246
REMARK   97  A    between atoms: _245  and  _248
REMARK   98  A    between atoms: _248  and  _249
REMARK   99  A    between atoms: _251  and  _253
REMARK  100  A    between atoms: _253  and  _254
REMARK  101  A    between atoms: _253  and  _256
REMARK  102  A    between atoms: _256  and  _257
REMARK  103  A    between atoms: _260  and  _262
REMARK  104  A    between atoms: _262  and  _263
REMARK  105  A    between atoms: _262  and  _265
REMARK  106  A    between atoms: _265  and  _266
REMARK  107  A    between atoms: _272  and  _274
REMARK  108  A    between atoms: _274  and  _275
REMARK  109  A    between atoms: _274  and  _277
REMARK  110  A    between atoms: _277  and  _278
REMARK  111  A    between atoms: _283  and  _285
REMARK  112  A    between atoms: _285  and  _286
REMARK  113  A    between atoms: _285  and  _288
REMARK  114  A    between atoms: _288  and  _289
REMARK  115  A    between atoms: _295  and  _297
REMARK  116  A    between atoms: _297  and  _298
REMARK  117  A    between atoms: _297  and  _300
REMARK  118  A    between atoms: _300  and  _301
REMARK  119  A    between atoms: _304  and  _306
REMARK  120  A    between atoms: _306  and  _307
REMARK  121  A    between atoms: _306  and  _309
REMARK                            x       y       z     vdW  Elec       q    Type
REMARK                         _______ _______ _______ _____ _____    ______ ____
ROOT
ATOM      1  CA  THR A   1       4.809  -3.500  30.491  0.00  0.00    +0.160 C 
ENDROOT
BRANCH   1   2
ATOM      2  N   THR A   1       4.295  -4.566  31.343  0.00  0.00    -0.237 NA
ATOM      3  H   THR A   1       4.051  -5.480  30.910  0.00  0.00    +0.142 HD
ENDBRANCH   1   2
BRANCH   1   4
ATOM      4  CB  THR A   1       6.208  -3.822  29.897  0.00  0.00    +0.134 C 
ATOM      5  CG2 THR A   1       6.804  -2.651  29.116  0.00  0.00    +0.034 C 
BRANCH   4   6
ATOM      6  OG1 THR A   1       7.084  -4.179  30.953  0.00  0.00    -0.383 OA
ATOM      7  HG1 THR A   1       6.727  -4.975  31.421  0.00  0.00    +0.210 HD
ENDBRANCH   4   6
ENDBRANCH   1   4
BRANCH   1   8
ATOM      8  C   THR A   1       3.833  -3.204  29.379  0.00  0.00    +0.227 C 
ATOM      9  O   THR A   1       3.432  -4.080  28.613  0.00  0.00    -0.287 OA
ENDBRANCH   1   8
TORSDOF 4
REMARK  Name = ../refined-set-2016/4bc5/4bc5_pocket.pdb
REMARK  121 active torsions:
REMARK  status: ('A' for Active; 'I' for Inactive)
REMARK    1  A    between atoms: _1  and  _3
REMARK    2  A    between atoms: _3  and  _4
REMARK    3  A    between atoms: _3  and  _6
REMARK    4  A    between atoms: _6  and  _7
REMARK    5  A    between atoms: _10  and  _12
REMARK    6  A    between atoms: _12  and  _13
REMARK    7  A    between atoms: _12  and  _15
REMARK    8  A    between atoms: _15  and  _16
REMARK    9  A    between atoms: _22  and  _24
REMARK   10  A    between atoms: _24  and  _25
REMARK   11  A    between atoms: _24  and  _27
REMARK   12  A    between atoms: _27  and  _28
REMARK   13  A    between atoms: _30  and  _32
REMARK   14  A    between atoms: _32  and  _33
REMARK   15  A    between atoms: _32  and  _35
REMARK   16  A    between atoms: _35  and  _36
REMARK   17  A    between atoms: _39  and  _41
REMARK   18  A    between atoms: _41  and  _42
REMARK   19  A    between atoms: _41  and  _44
REMARK   20  A    between atoms: _44  and  _45
REMARK   21  A    between atoms: _45  and  _46
REMARK   22  A    between atoms: _51  and  _53
REMARK   23  A    between atoms: _53  and  _54
REMARK   24  A    between atoms: _56  and  _58
REMARK   25  A    between atoms: _58  and  _59
REMARK   26  A    between atoms: _58  and  _61
REMARK   27  A    between atoms: _61  and  _62
REMARK   28  A    between atoms: _62  and  _63
REMARK   29  A    between atoms: _68  and  _70
REMARK   30  A    between atoms: _70  and  _71
REMARK   31  A    between atoms: _70  and  _73
REMARK   32  A    between atoms: _73  and  _74
REMARK   33  A    between atoms: _74  and  _75
REMARK   34  A    between atoms: _80  and  _82
REMARK   35  A    between atoms: _82  and  _83
REMARK   36  A    between atoms: _82  and  _85
REMARK   37  A    between atoms: _85  and  _86
REMARK   38  A    between atoms: _91  and  _93
REMARK   39  A    between atoms: _93  and  _94
REMARK   40  A    between atoms: _96  and  _98
REMARK   41  A    between atoms: _98  and  _99
REMARK   42  A    between atoms: _98  and  _101
REMARK   43  A    between atoms: _104  and  _106
REMARK   44  A    between atoms: _106  and  _107
REMARK   45  A    between atoms: _106  and  _109
REMARK   46  A    between atoms: _109  and  _110
REMARK   47  A    between atoms: _120  and  _122
REMARK   48  A    between atoms: _122  and  _123
REMARK   49  A    between atoms: _122  and  _125
REMARK   50  A    between atoms: _125  and  _126
REMARK   51  A    between atoms: _126  and  _127
REMARK   52  A    between atoms: _129  and  _131
REMARK   53  A    between atoms: _131  and  _132
REMARK   54  A    between atoms: _131  and  _134
REMARK   55  A    between atoms: _134  and  _135
REMARK   56  A    between atoms: _138  and  _140
REMARK   57  A    between atoms: _140  and  _141
REMARK   58  A    between atoms: _140  and  _143
REMARK   59  A    between atoms: _143  and  _144
REMARK   60  A    between atoms: _146  and  _148
REMARK   61  A    between atoms: _148  and  _149
REMARK   62  A    between atoms: _148  and  _151
REMARK   63  A    between atoms: _151  and  _152
REMARK   64  A    between atoms: _157  and  _158
REMARK   65  A    between atoms: _160  and  _162
REMARK   66  A    between atoms: _162  and  _163
REMARK   67  A    between atoms: _162  and  _165
REMARK   68  A    between atoms: _165  and  _166
REMARK   69  A    between atoms: _166  and  _167
REMARK   70  A    between atoms: _167  and  _168
REMARK   71  A    between atoms: _177  and  _179
REMARK   72  A    between atoms: _179  and  _180
REMARK   73  A    between atoms: _179  and  _182
REMARK   74  A    between atoms: _182  and  _183
REMARK   75  A    between atoms: _189  and  _191
REMARK   76  A    between atoms: _191  and  _192
REMARK   77  A    between atoms: _191  and  _194
REMARK   78  A    between atoms: _197  and  _199
REMARK   79  A    between atoms: _199  and  _200
REMARK   80  A    between atoms: _199  and  _202
REMARK   81  A    between atoms: _202  and  _203
REMARK   82  A    between atoms: _206  and  _208
REMARK   83  A    between atoms: _208  and  _209
REMARK   84  A    between atoms: _211  and  _213
REMARK   85  A    between atoms: _213  and  _214
REMARK   86  A    between atoms: _216  and  _218
REMARK   87  A    between atoms: _218  and  _219
REMARK   88  A    between atoms: _218  and  _221
REMARK   89  A    between atoms: _221  and  _222
REMARK   90  A    between atoms: _225  and  _227
REMARK   91  A    between atoms: _227  and  _228
REMARK   92  A    between atoms: _227  and  _230
REMARK   93  A    between atoms: _230  and  _231
REMARK   94  A    between atoms: _237  and  _238
REMARK   95  A    between atoms: _243  and  _245
REMARK   96  A    between atoms: _245  and  _246
REMARK   97  A    between atoms: _245  and  _248
REMARK   98  A    between atoms: _248  and  _249
REMARK   99  A    between atoms: _251  and  _253
REMARK  100  A    between atoms: _253  and  _254
REMARK  101  A    between atoms: _253  and  _256
REMARK  102  A    between atoms: _256  and  _257
REMARK  103  A    between atoms: _260  and  _262
REMARK  104  A    between atoms: _262  and  _263
REMARK  105  A    between atoms: _262  and  _265
REMARK  106  A    between atoms: _265  and  _266
REMARK  107  A    between atoms: _272  and  _274
REMARK  108  A    between atoms: _274  and  _275
REMARK  109  A    between atoms: _274  and  _277
REMARK  110  A    between atoms: _277  and  _278
REMARK  111  A    between atoms: _283  and  _285
REMARK  112  A    between atoms: _285  and  _286
REMARK  113  A    between atoms: _285  and  _288
REMARK  114  A    between atoms: _288  and  _289
REMARK  115  A    between atoms: _295  and  _297
REMARK  116  A    between atoms: _297  and  _298
REMARK  117  A    between atoms: _297  and  _300
REMARK  118  A    between atoms: _300  and  _301
REMARK  119  A    between atoms: _304  and  _306
REMARK  120  A    between atoms: _306  and  _307
REMARK  121  A    between atoms: _306  and  _309
REMARK                            x       y       z     vdW  Elec       q    Type
REMARK                         _______ _______ _______ _____ _____    ______ ____
ROOT
ATOM      1  CB  PHE A   1       4.461  -1.814  23.729  0.00  0.00    +0.051 C 
ENDROOT
BRANCH   1   2
ATOM      2  CG  PHE A   1       5.621  -2.614  24.267  0.00  0.00    -0.020 A 
ATOM      3  CD2 PHE A   1       5.441  -3.518  25.313  0.00  0.00    -0.004 A 
ATOM      4  CE2 PHE A   1       6.499  -4.276  25.785  0.00  0.00    -0.000 A 
ATOM      5  CZ  PHE A   1       7.718  -4.225  25.141  0.00  0.00    -0.000 A 
ATOM      6  CE1 PHE A   1       7.902  -3.388  24.075  0.00  0.00    -0.000 A 
ATOM      7  CD1 PHE A   1       6.854  -2.589  23.628  0.00  0.00    -0.004 A 
ENDBRANCH   1   2
BRANCH   1   8
ATOM      8  CA  PHE A   1       3.961  -0.690  24.630  0.00  0.00    +0.137 C 
BRANCH   8   9
ATOM      9  N   PHE A   1       3.321  -1.233  25.833  0.00  0.00    -0.239 NA
ATOM     10  H   PHE A   1       2.624  -1.994  25.703  0.00  0.00    +0.142 HD
ENDBRANCH   8   9
BRANCH   8  11
ATOM     11  C   PHE A   1       2.892   0.099  23.875  0.00  0.00    +0.224 C 
ATOM     12  O   PHE A   1       1.931  -0.511  23.430  0.00  0.00    -0.287 OA
ENDBRANCH   8  11
ENDBRANCH   1   8
TORSDOF 4
REMARK  Name = ../refined-set-2016/4bc5/4bc5_pocket.pdb
REMARK  121 active torsions:
REMARK  status: ('A' for Active; 'I' for Inactive)
REMARK    1  A    between atoms: _1  and  _3
REMARK    2  A    between atoms: _3  and  _4
REMARK    3  A    between atoms: _3  and  _6
REMARK    4  A    between atoms: _6  and  _7
REMARK    5  A    between atoms: _10  and  _12
REMARK    6  A    between atoms: _12  and  _13
REMARK    7  A    between atoms: _12  and  _15
REMARK    8  A    between atoms: _15  and  _16
REMARK    9  A    between atoms: _22  and  _24
REMARK   10  A    between atoms: _24  and  _25
REMARK   11  A    between atoms: _24  and  _27
REMARK   12  A    between atoms: _27  and  _28
REMARK   13  A    between atoms: _30  and  _32
REMARK   14  A    between atoms: _32  and  _33
REMARK   15  A    between atoms: _32  and  _35
REMARK   16  A    between atoms: _35  and  _36
REMARK   17  A    between atoms: _39  and  _41
REMARK   18  A    between atoms: _41  and  _42
REMARK   19  A    between atoms: _41  and  _44
REMARK   20  A    between atoms: _44  and  _45
REMARK   21  A    between atoms: _45  and  _46
REMARK   22  A    between atoms: _51  and  _53
REMARK   23  A    between atoms: _53  and  _54
REMARK   24  A    between atoms: _56  and  _58
REMARK   25  A    between atoms: _58  and  _59
REMARK   26  A    between atoms: _58  and  _61
REMARK   27  A    between atoms: _61  and  _62
REMARK   28  A    between atoms: _62  and  _63
REMARK   29  A    between atoms: _68  and  _70
REMARK   30  A    between atoms: _70  and  _71
REMARK   31  A    between atoms: _70  and  _73
REMARK   32  A    between atoms: _73  and  _74
REMARK   33  A    between atoms: _74  and  _75
REMARK   34  A    between atoms: _80  and  _82
REMARK   35  A    between atoms: _82  and  _83
REMARK   36  A    between atoms: _82  and  _85
REMARK   37  A    between atoms: _85  and  _86
REMARK   38  A    between atoms: _91  and  _93
REMARK   39  A    between atoms: _93  and  _94
REMARK   40  A    between atoms: _96  and  _98
REMARK   41  A    between atoms: _98  and  _99
REMARK   42  A    between atoms: _98  and  _101
REMARK   43  A    between atoms: _104  and  _106
REMARK   44  A    between atoms: _106  and  _107
REMARK   45  A    between atoms: _106  and  _109
REMARK   46  A    between atoms: _109  and  _110
REMARK   47  A    between atoms: _120  and  _122
REMARK   48  A    between atoms: _122  and  _123
REMARK   49  A    between atoms: _122  and  _125
REMARK   50  A    between atoms: _125  and  _126
REMARK   51  A    between atoms: _126  and  _127
REMARK   52  A    between atoms: _129  and  _131
REMARK   53  A    between atoms: _131  and  _132
REMARK   54  A    between atoms: _131  and  _134
REMARK   55  A    between atoms: _134  and  _135
REMARK   56  A    between atoms: _138  and  _140
REMARK   57  A    between atoms: _140  and  _141
REMARK   58  A    between atoms: _140  and  _143
REMARK   59  A    between atoms: _143  and  _144
REMARK   60  A    between atoms: _146  and  _148
REMARK   61  A    between atoms: _148  and  _149
REMARK   62  A    between atoms: _148  and  _151
REMARK   63  A    between atoms: _151  and  _152
REMARK   64  A    between atoms: _157  and  _158
REMARK   65  A    between atoms: _160  and  _162
REMARK   66  A    between atoms: _162  and  _163
REMARK   67  A    between atoms: _162  and  _165
REMARK   68  A    between atoms: _165  and  _166
REMARK   69  A    between atoms: _166  and  _167
REMARK   70  A    between atoms: _167  and  _168
REMARK   71  A    between atoms: _177  and  _179
REMARK   72  A    between atoms: _179  and  _180
REMARK   73  A    between atoms: _179  and  _182
REMARK   74  A    between atoms: _182  and  _183
REMARK   75  A    between atoms: _189  and  _191
REMARK   76  A    between atoms: _191  and  _192
REMARK   77  A    between atoms: _191  and  _194
REMARK   78  A    between atoms: _197  and  _199
REMARK   79  A    between atoms: _199  and  _200
REMARK   80  A    between atoms: _199  and  _202
REMARK   81  A    between atoms: _202  and  _203
REMARK   82  A    between atoms: _206  and  _208
REMARK   83  A    between atoms: _208  and  _209
REMARK   84  A    between atoms: _211  and  _213
REMARK   85  A    between atoms: _213  and  _214
REMARK   86  A    between atoms: _216  and  _218
REMARK   87  A    between atoms: _218  and  _219
REMARK   88  A    between atoms: _218  and  _221
REMARK   89  A    between atoms: _221  and  _222
REMARK   90  A    between atoms: _225  and  _227
REMARK   91  A    between atoms: _227  and  _228
REMARK   92  A    between atoms: _227  and  _230
REMARK   93  A    between atoms: _230  and  _231
REMARK   94  A    between atoms: _237  and  _238
REMARK   95  A    between atoms: _243  and  _245
REMARK   96  A    between atoms: _245  and  _246
REMARK   97  A    between atoms: _245  and  _248
REMARK   98  A    between atoms: _248  and  _249
REMARK   99  A    between atoms: _251  and  _253
REMARK  100  A    between atoms: _253  and  _254
REMARK  101  A    between atoms: _253  and  _256
REMARK  102  A    between atoms: _256  and  _257
REMARK  103  A    between atoms: _260  and  _262
REMARK  104  A    between atoms: _262  and  _263
REMARK  105  A    between atoms: _262  and  _265
REMARK  106  A    between atoms: _265  and  _266
REMARK  107  A    between atoms: _272  and  _274
REMARK  108  A    between atoms: _274  and  _275
REMARK  109  A    between atoms: _274  and  _277
REMARK  110  A    between atoms: _277  and  _278
REMARK  111  A    between atoms: _283  and  _285
REMARK  112  A    between atoms: _285  and  _286
REMARK  113  A    between atoms: _285  and  _288
REMARK  114  A    between atoms: _288  and  _289
REMARK  115  A    between atoms: _295  and  _297
REMARK  116  A    between atoms: _297  and  _298
REMARK  117  A    between atoms: _297  and  _300
REMARK  118  A    between atoms: _300  and  _301
REMARK  119  A    between atoms: _304  and  _306
REMARK  120  A    between atoms: _306  and  _307
REMARK  121  A    between atoms: _306  and  _309
REMARK                            x       y       z     vdW  Elec       q    Type
REMARK                         _______ _______ _______ _____ _____    ______ ____
ROOT
ATOM      1  CB  HIS A   1      10.465   5.563  28.669  0.00  0.00    +0.072 C 
ENDROOT
BRANCH   1   2
ATOM      2  CG  HIS A   1      10.803   5.086  30.037  0.00  0.00    +0.082 A 
ATOM      3  ND1 HIS A   1      11.480   5.882  30.945  0.00  0.00    -0.227 NA
ATOM      4  CE1 HIS A   1      11.568   5.164  32.054  0.00  0.00    +0.199 A 
ATOM      5  NE2 HIS A   1      10.985   3.971  31.909  0.00  0.00    -0.221 NA
ATOM      6  CD2 HIS A   1      10.494   3.909  30.632  0.00  0.00    +0.115 A 
ENDBRANCH   1   2
BRANCH   1   7
ATOM      7  CA  HIS A   1       9.329   6.606  28.627  0.00  0.00    +0.139 C 
BRANCH   7   8
ATOM      8  N   HIS A   1       8.233   6.235  29.513  0.00  0.00    -0.239 NA
ATOM      9  H   HIS A   1       7.572   5.496  29.201  0.00  0.00    +0.142 HD
ENDBRANCH   7   8
BRANCH   7  10
ATOM     10  C   HIS A   1       8.826   6.751  27.216  0.00  0.00    +0.224 C 
ATOM     11  O   HIS A   1       8.302   5.792  26.672  0.00  0.00    -0.287 OA
ENDBRANCH   7  10
ENDBRANCH   1   7
TORSDOF 4
REMARK  Name = ../refined-set-2016/4bc5/4bc5_pocket.pdb
REMARK  121 active torsions:
REMARK  status: ('A' for Active; 'I' for Inactive)
REMARK    1  A    between atoms: _1  and  _3
REMARK    2  A    between atoms: _3  and  _4
REMARK    3  A    between atoms: _3  and  _6
REMARK    4  A    between atoms: _6  and  _7
REMARK    5  A    between atoms: _10  and  _12
REMARK    6  A    between atoms: _12  and  _13
REMARK    7  A    between atoms: _12  and  _15
REMARK    8  A    between atoms: _15  and  _16
REMARK    9  A    between atoms: _22  and  _24
REMARK   10  A    between atoms: _24  and  _25
REMARK   11  A    between atoms: _24  and  _27
REMARK   12  A    between atoms: _27  and  _28
REMARK   13  A    between atoms: _30  and  _32
REMARK   14  A    between atoms: _32  and  _33
REMARK   15  A    between atoms: _32  and  _35
REMARK   16  A    between atoms: _35  and  _36
REMARK   17  A    between atoms: _39  and  _41
REMARK   18  A    between atoms: _41  and  _42
REMARK   19  A    between atoms: _41  and  _44
REMARK   20  A    between atoms: _44  and  _45
REMARK   21  A    between atoms: _45  and  _46
REMARK   22  A    between atoms: _51  and  _53
REMARK   23  A    between atoms: _53  and  _54
REMARK   24  A    between atoms: _56  and  _58
REMARK   25  A    between atoms: _58  and  _59
REMARK   26  A    between atoms: _58  and  _61
REMARK   27  A    between atoms: _61  and  _62
REMARK   28  A    between atoms: _62  and  _63
REMARK   29  A    between atoms: _68  and  _70
REMARK   30  A    between atoms: _70  and  _71
REMARK   31  A    between atoms: _70  and  _73
REMARK   32  A    between atoms: _73  and  _74
REMARK   33  A    between atoms: _74  and  _75
REMARK   34  A    between atoms: _80  and  _82
REMARK   35  A    between atoms: _82  and  _83
REMARK   36  A    between atoms: _82  and  _85
REMARK   37  A    between atoms: _85  and  _86
REMARK   38  A    between atoms: _91  and  _93
REMARK   39  A    between atoms: _93  and  _94
REMARK   40  A    between atoms: _96  and  _98
REMARK   41  A    between atoms: _98  and  _99
REMARK   42  A    between atoms: _98  and  _101
REMARK   43  A    between atoms: _104  and  _106
REMARK   44  A    between atoms: _106  and  _107
REMARK   45  A    between atoms: _106  and  _109
REMARK   46  A    between atoms: _109  and  _110
REMARK   47  A    between atoms: _120  and  _122
REMARK   48  A    between atoms: _122  and  _123
REMARK   49  A    between atoms: _122  and  _125
REMARK   50  A    between atoms: _125  and  _126
REMARK   51  A    between atoms: _126  and  _127
REMARK   52  A    between atoms: _129  and  _131
REMARK   53  A    between atoms: _131  and  _132
REMARK   54  A    between atoms: _131  and  _134
REMARK   55  A    between atoms: _134  and  _135
REMARK   56  A    between atoms: _138  and  _140
REMARK   57  A    between atoms: _140  and  _141
REMARK   58  A    between atoms: _140  and  _143
REMARK   59  A    between atoms: _143  and  _144
REMARK   60  A    between atoms: _146  and  _148
REMARK   61  A    between atoms: _148  and  _149
REMARK   62  A    between atoms: _148  and  _151
REMARK   63  A    between atoms: _151  and  _152
REMARK   64  A    between atoms: _157  and  _158
REMARK   65  A    between atoms: _160  and  _162
REMARK   66  A    between atoms: _162  and  _163
REMARK   67  A    between atoms: _162  and  _165
REMARK   68  A    between atoms: _165  and  _166
REMARK   69  A    between atoms: _166  and  _167
REMARK   70  A    between atoms: _167  and  _168
REMARK   71  A    between atoms: _177  and  _179
REMARK   72  A    between atoms: _179  and  _180
REMARK   73  A    between atoms: _179  and  _182
REMARK   74  A    between atoms: _182  and  _183
REMARK   75  A    between atoms: _189  and  _191
REMARK   76  A    between atoms: _191  and  _192
REMARK   77  A    between atoms: _191  and  _194
REMARK   78  A    between atoms: _197  and  _199
REMARK   79  A    between atoms: _199  and  _200
REMARK   80  A    between atoms: _199  and  _202
REMARK   81  A    between atoms: _202  and  _203
REMARK   82  A    between atoms: _206  and  _208
REMARK   83  A    between atoms: _208  and  _209
REMARK   84  A    between atoms: _211  and  _213
REMARK   85  A    between atoms: _213  and  _214
REMARK   86  A    between atoms: _216  and  _218
REMARK   87  A    between atoms: _218  and  _219
REMARK   88  A    between atoms: _218  and  _221
REMARK   89  A    between atoms: _221  and  _222
REMARK   90  A    between atoms: _225  and  _227
REMARK   91  A    between atoms: _227  and  _228
REMARK   92  A    between atoms: _227  and  _230
REMARK   93  A    between atoms: _230  and  _231
REMARK   94  A    between atoms: _237  and  _238
REMARK   95  A    between atoms: _243  and  _245
REMARK   96  A    between atoms: _245  and  _246
REMARK   97  A    between atoms: _245  and  _248
REMARK   98  A    between atoms: _248  and  _249
REMARK   99  A    between atoms: _251  and  _253
REMARK  100  A    between atoms: _253  and  _254
REMARK  101  A    between atoms: _253  and  _256
REMARK  102  A    between atoms: _256  and  _257
REMARK  103  A    between atoms: _260  and  _262
REMARK  104  A    between atoms: _262  and  _263
REMARK  105  A    between atoms: _262  and  _265
REMARK  106  A    between atoms: _265  and  _266
REMARK  107  A    between atoms: _272  and  _274
REMARK  108  A    between atoms: _274  and  _275
REMARK  109  A    between atoms: _274  and  _277
REMARK  110  A    between atoms: _277  and  _278
REMARK  111  A    between atoms: _283  and  _285
REMARK  112  A    between atoms: _285  and  _286
REMARK  113  A    between atoms: _285  and  _288
REMARK  114  A    between atoms: _288  and  _289
REMARK  115  A    between atoms: _295  and  _297
REMARK  116  A    between atoms: _297  and  _298
REMARK  117  A    between atoms: _297  and  _300
REMARK  118  A    between atoms: _300  and  _301
REMARK  119  A    between atoms: _304  and  _306
REMARK  120  A    between atoms: _306  and  _307
REMARK  121  A    between atoms: _306  and  _309
REMARK                            x       y       z     vdW  Elec       q    Type
REMARK                         _______ _______ _______ _____ _____    ______ ____
ROOT
ATOM      1  CB  PHE A   1      11.397   5.800  22.281  0.00  0.00    +0.051 C 
ENDROOT
BRANCH   1   2
ATOM      2  CG  PHE A   1      11.794   5.083  23.551  0.00  0.00    -0.020 A 
ATOM      3  CD2 PHE A   1      12.443   5.755  24.586  0.00  0.00    -0.004 A 
ATOM      4  CE2 PHE A   1      12.839   5.074  25.755  0.00  0.00    -0.000 A 
ATOM      5  CZ  PHE A   1      12.651   3.716  25.857  0.00  0.00    -0.000 A 
ATOM      6  CE1 PHE A   1      12.031   3.035  24.835  0.00  0.00    -0.000 A 
ATOM      7  CD1 PHE A   1      11.626   3.716  23.672  0.00  0.00    -0.004 A 
ENDBRANCH   1   2
BRANCH   1   8
ATOM      8  CA  PHE A   1      10.834   7.227  22.376  0.00  0.00    +0.137 C 
BRANCH   8   9
ATOM      9  N   PHE A   1       9.754   7.315  23.348  0.00  0.00    -0.239 NA
ATOM     10  H   PHE A   1       8.897   6.747  23.194  0.00  0.00    +0.142 HD
ENDBRANCH   8   9
BRANCH   8  11
ATOM     11  C   PHE A   1      10.316   7.614  20.989  0.00  0.00    +0.224 C 
ATOM     12  O   PHE A   1       9.124   7.472  20.704  0.00  0.00    -0.287 OA
ENDBRANCH   8  11
ENDBRANCH   1   8
TORSDOF 4
REMARK  Name = ../refined-set-2016/4bc5/4bc5_pocket.pdb
REMARK  121 active torsions:
REMARK  status: ('A' for Active; 'I' for Inactive)
REMARK    1  A    between atoms: _1  and  _3
REMARK    2  A    between atoms: _3  and  _4
REMARK    3  A    between atoms: _3  and  _6
REMARK    4  A    between atoms: _6  and  _7
REMARK    5  A    between atoms: _10  and  _12
REMARK    6  A    between atoms: _12  and  _13
REMARK    7  A    between atoms: _12  and  _15
REMARK    8  A    between atoms: _15  and  _16
REMARK    9  A    between atoms: _22  and  _24
REMARK   10  A    between atoms: _24  and  _25
REMARK   11  A    between atoms: _24  and  _27
REMARK   12  A    between atoms: _27  and  _28
REMARK   13  A    between atoms: _30  and  _32
REMARK   14  A    between atoms: _32  and  _33
REMARK   15  A    between atoms: _32  and  _35
REMARK   16  A    between atoms: _35  and  _36
REMARK   17  A    between atoms: _39  and  _41
REMARK   18  A    between atoms: _41  and  _42
REMARK   19  A    between atoms: _41  and  _44
REMARK   20  A    between atoms: _44  and  _45
REMARK   21  A    between atoms: _45  and  _46
REMARK   22  A    between atoms: _51  and  _53
REMARK   23  A    between atoms: _53  and  _54
REMARK   24  A    between atoms: _56  and  _58
REMARK   25  A    between atoms: _58  and  _59
REMARK   26  A    between atoms: _58  and  _61
REMARK   27  A    between atoms: _61  and  _62
REMARK   28  A    between atoms: _62  and  _63
REMARK   29  A    between atoms: _68  and  _70
REMARK   30  A    between atoms: _70  and  _71
REMARK   31  A    between atoms: _70  and  _73
REMARK   32  A    between atoms: _73  and  _74
REMARK   33  A    between atoms: _74  and  _75
REMARK   34  A    between atoms: _80  and  _82
REMARK   35  A    between atoms: _82  and  _83
REMARK   36  A    between atoms: _82  and  _85
REMARK   37  A    between atoms: _85  and  _86
REMARK   38  A    between atoms: _91  and  _93
REMARK   39  A    between atoms: _93  and  _94
REMARK   40  A    between atoms: _96  and  _98
REMARK   41  A    between atoms: _98  and  _99
REMARK   42  A    between atoms: _98  and  _101
REMARK   43  A    between atoms: _104  and  _106
REMARK   44  A    between atoms: _106  and  _107
REMARK   45  A    between atoms: _106  and  _109
REMARK   46  A    between atoms: _109  and  _110
REMARK   47  A    between atoms: _120  and  _122
REMARK   48  A    between atoms: _122  and  _123
REMARK   49  A    between atoms: _122  and  _125
REMARK   50  A    between atoms: _125  and  _126
REMARK   51  A    between atoms: _126  and  _127
REMARK   52  A    between atoms: _129  and  _131
REMARK   53  A    between atoms: _131  and  _132
REMARK   54  A    between atoms: _131  and  _134
REMARK   55  A    between atoms: _134  and  _135
REMARK   56  A    between atoms: _138  and  _140
REMARK   57  A    between atoms: _140  and  _141
REMARK   58  A    between atoms: _140  and  _143
REMARK   59  A    between atoms: _143  and  _144
REMARK   60  A    between atoms: _146  and  _148
REMARK   61  A    between atoms: _148  and  _149
REMARK   62  A    between atoms: _148  and  _151
REMARK   63  A    between atoms: _151  and  _152
REMARK   64  A    between atoms: _157  and  _158
REMARK   65  A    between atoms: _160  and  _162
REMARK   66  A    between atoms: _162  and  _163
REMARK   67  A    between atoms: _162  and  _165
REMARK   68  A    between atoms: _165  and  _166
REMARK   69  A    between atoms: _166  and  _167
REMARK   70  A    between atoms: _167  and  _168
REMARK   71  A    between atoms: _177  and  _179
REMARK   72  A    between atoms: _179  and  _180
REMARK   73  A    between atoms: _179  and  _182
REMARK   74  A    between atoms: _182  and  _183
REMARK   75  A    between atoms: _189  and  _191
REMARK   76  A    between atoms: _191  and  _192
REMARK   77  A    between atoms: _191  and  _194
REMARK   78  A    between atoms: _197  and  _199
REMARK   79  A    between atoms: _199  and  _200
REMARK   80  A    between atoms: _199  and  _202
REMARK   81  A    between atoms: _202  and  _203
REMARK   82  A    between atoms: _206  and  _208
REMARK   83  A    between atoms: _208  and  _209
REMARK   84  A    between atoms: _211  and  _213
REMARK   85  A    between atoms: _213  and  _214
REMARK   86  A    between atoms: _216  and  _218
REMARK   87  A    between atoms: _218  and  _219
REMARK   88  A    between atoms: _218  and  _221
REMARK   89  A    between atoms: _221  and  _222
REMARK   90  A    between atoms: _225  and  _227
REMARK   91  A    between atoms: _227  and  _228
REMARK   92  A    between atoms: _227  and  _230
REMARK   93  A    between atoms: _230  and  _231
REMARK   94  A    between atoms: _237  and  _238
REMARK   95  A    between atoms: _243  and  _245
REMARK   96  A    between atoms: _245  and  _246
REMARK   97  A    between atoms: _245  and  _248
REMARK   98  A    between atoms: _248  and  _249
REMARK   99  A    between atoms: _251  and  _253
REMARK  100  A    between atoms: _253  and  _254
REMARK  101  A    between atoms: _253  and  _256
REMARK  102  A    between atoms: _256  and  _257
REMARK  103  A    between atoms: _260  and  _262
REMARK  104  A    between atoms: _262  and  _263
REMARK  105  A    between atoms: _262  and  _265
REMARK  106  A    between atoms: _265  and  _266
REMARK  107  A    between atoms: _272  and  _274
REMARK  108  A    between atoms: _274  and  _275
REMARK  109  A    between atoms: _274  and  _277
REMARK  110  A    between atoms: _277  and  _278
REMARK  111  A    between atoms: _283  and  _285
REMARK  112  A    between atoms: _285  and  _286
REMARK  113  A    between atoms: _285  and  _288
REMARK  114  A    between atoms: _288  and  _289
REMARK  115  A    between atoms: _295  and  _297
REMARK  116  A    between atoms: _297  and  _298
REMARK  117  A    between atoms: _297  and  _300
REMARK  118  A    between atoms: _300  and  _301
REMARK  119  A    between atoms: _304  and  _306
REMARK  120  A    between atoms: _306  and  _307
REMARK  121  A    between atoms: _306  and  _309
REMARK                            x       y       z     vdW  Elec       q    Type
REMARK                         _______ _______ _______ _____ _____    ______ ____
ROOT
ATOM      1  CA  LEU A   1       6.830   2.165  27.535  0.00  0.00    +0.133 C 
ENDROOT
BRANCH   1   2
ATOM      2  N   LEU A   1       6.808   3.261  26.584  0.00  0.00    -0.239 NA
ATOM      3  H   LEU A   1       7.442   4.063  26.775  0.00  0.00    +0.142 HD
ENDBRANCH   1   2
BRANCH   1   4
ATOM      4  C   LEU A   1       6.311   2.709  28.880  0.00  0.00    +0.224 C 
ATOM      5  O   LEU A   1       6.783   3.749  29.339  0.00  0.00    -0.287 OA
ENDBRANCH   1   4
BRANCH   1   6
ATOM      6  CB  LEU A   1       8.247   1.638  27.790  0.00  0.00    +0.025 C 
BRANCH   6   7
ATOM      7  CG  LEU A   1       9.000   0.980  26.630  0.00  0.00    +0.002 C 
ATOM      8  CD2 LEU A   1      10.350   0.432  27.160  0.00  0.00    +0.000 C 
ATOM      9  CD1 LEU A   1       8.161  -0.137  26.021  0.00  0.00    +0.000 C 
ENDBRANCH   6   7
ENDBRANCH   1   6
TORSDOF 4
REMARK  Name = ../refined-set-2016/4bc5/4bc5_pocket.pdb
REMARK  121 active torsions:
REMARK  status: ('A' for Active; 'I' for Inactive)
REMARK    1  A    between atoms: _1  and  _3
REMARK    2  A    between atoms: _3  and  _4
REMARK    3  A    between atoms: _3  and  _6
REMARK    4  A    between atoms: _6  and  _7
REMARK    5  A    between atoms: _10  and  _12
REMARK    6  A    between atoms: _12  and  _13
REMARK    7  A    between atoms: _12  and  _15
REMARK    8  A    between atoms: _15  and  _16
REMARK    9  A    between atoms: _22  and  _24
REMARK   10  A    between atoms: _24  and  _25
REMARK   11  A    between atoms: _24  and  _27
REMARK   12  A    between atoms: _27  and  _28
REMARK   13  A    between atoms: _30  and  _32
REMARK   14  A    between atoms: _32  and  _33
REMARK   15  A    between atoms: _32  and  _35
REMARK   16  A    between atoms: _35  and  _36
REMARK   17  A    between atoms: _39  and  _41
REMARK   18  A    between atoms: _41  and  _42
REMARK   19  A    between atoms: _41  and  _44
REMARK   20  A    between atoms: _44  and  _45
REMARK   21  A    between atoms: _45  and  _46
REMARK   22  A    between atoms: _51  and  _53
REMARK   23  A    between atoms: _53  and  _54
REMARK   24  A    between atoms: _56  and  _58
REMARK   25  A    between atoms: _58  and  _59
REMARK   26  A    between atoms: _58  and  _61
REMARK   27  A    between atoms: _61  and  _62
REMARK   28  A    between atoms: _62  and  _63
REMARK   29  A    between atoms: _68  and  _70
REMARK   30  A    between atoms: _70  and  _71
REMARK   31  A    between atoms: _70  and  _73
REMARK   32  A    between atoms: _73  and  _74
REMARK   33  A    between atoms: _74  and  _75
REMARK   34  A    between atoms: _80  and  _82
REMARK   35  A    between atoms: _82  and  _83
REMARK   36  A    between atoms: _82  and  _85
REMARK   37  A    between atoms: _85  and  _86
REMARK   38  A    between atoms: _91  and  _93
REMARK   39  A    between atoms: _93  and  _94
REMARK   40  A    between atoms: _96  and  _98
REMARK   41  A    between atoms: _98  and  _99
REMARK   42  A    between atoms: _98  and  _101
REMARK   43  A    between atoms: _104  and  _106
REMARK   44  A    between atoms: _106  and  _107
REMARK   45  A    between atoms: _106  and  _109
REMARK   46  A    between atoms: _109  and  _110
REMARK   47  A    between atoms: _120  and  _122
REMARK   48  A    between atoms: _122  and  _123
REMARK   49  A    between atoms: _122  and  _125
REMARK   50  A    between atoms: _125  and  _126
REMARK   51  A    between atoms: _126  and  _127
REMARK   52  A    between atoms: _129  and  _131
REMARK   53  A    between atoms: _131  and  _132
REMARK   54  A    between atoms: _131  and  _134
REMARK   55  A    between atoms: _134  and  _135
REMARK   56  A    between atoms: _138  and  _140
REMARK   57  A    between atoms: _140  and  _141
REMARK   58  A    between atoms: _140  and  _143
REMARK   59  A    between atoms: _143  and  _144
REMARK   60  A    between atoms: _146  and  _148
REMARK   61  A    between atoms: _148  and  _149
REMARK   62  A    between atoms: _148  and  _151
REMARK   63  A    between atoms: _151  and  _152
REMARK   64  A    between atoms: _157  and  _158
REMARK   65  A    between atoms: _160  and  _162
REMARK   66  A    between atoms: _162  and  _163
REMARK   67  A    between atoms: _162  and  _165
REMARK   68  A    between atoms: _165  and  _166
REMARK   69  A    between atoms: _166  and  _167
REMARK   70  A    between atoms: _167  and  _168
REMARK   71  A    between atoms: _177  and  _179
REMARK   72  A    between atoms: _179  and  _180
REMARK   73  A    between atoms: _179  and  _182
REMARK   74  A    between atoms: _182  and  _183
REMARK   75  A    between atoms: _189  and  _191
REMARK   76  A    between atoms: _191  and  _192
REMARK   77  A    between atoms: _191  and  _194
REMARK   78  A    between atoms: _197  and  _199
REMARK   79  A    between atoms: _199  and  _200
REMARK   80  A    between atoms: _199  and  _202
REMARK   81  A    between atoms: _202  and  _203
REMARK   82  A    between atoms: _206  and  _208
REMARK   83  A    between atoms: _208  and  _209
REMARK   84  A    between atoms: _211  and  _213
REMARK   85  A    between atoms: _213  and  _214
REMARK   86  A    between atoms: _216  and  _218
REMARK   87  A    between atoms: _218  and  _219
REMARK   88  A    between atoms: _218  and  _221
REMARK   89  A    between atoms: _221  and  _222
REMARK   90  A    between atoms: _225  and  _227
REMARK   91  A    between atoms: _227  and  _228
REMARK   92  A    between atoms: _227  and  _230
REMARK   93  A    between atoms: _230  and  _231
REMARK   94  A    between atoms: _237  and  _238
REMARK   95  A    between atoms: _243  and  _245
REMARK   96  A    between atoms: _245  and  _246
REMARK   97  A    between atoms: _245  and  _248
REMARK   98  A    between atoms: _248  and  _249
REMARK   99  A    between atoms: _251  and  _253
REMARK  100  A    between atoms: _253  and  _254
REMARK  101  A    between atoms: _253  and  _256
REMARK  102  A    between atoms: _256  and  _257
REMARK  103  A    between atoms: _260  and  _262
REMARK  104  A    between atoms: _262  and  _263
REMARK  105  A    between atoms: _262  and  _265
REMARK  106  A    between atoms: _265  and  _266
REMARK  107  A    between atoms: _272  and  _274
REMARK  108  A    between atoms: _274  and  _275
REMARK  109  A    between atoms: _274  and  _277
REMARK  110  A    between atoms: _277  and  _278
REMARK  111  A    between atoms: _283  and  _285
REMARK  112  A    between atoms: _285  and  _286
REMARK  113  A    between atoms: _285  and  _288
REMARK  114  A    between atoms: _288  and  _289
REMARK  115  A    between atoms: _295  and  _297
REMARK  116  A    between atoms: _297  and  _298
REMARK  117  A    between atoms: _297  and  _300
REMARK  118  A    between atoms: _300  and  _301
REMARK  119  A    between atoms: _304  and  _306
REMARK  120  A    between atoms: _306  and  _307
REMARK  121  A    between atoms: _306  and  _309
REMARK                            x       y       z     vdW  Elec       q    Type
REMARK                         _______ _______ _______ _____ _____    ______ ____
ROOT
ATOM      1  CA  CYS A   1       6.071  -0.239  33.591  0.00  0.00    +0.145 C 
ENDROOT
BRANCH   1   2
ATOM      2  N   CYS A   1       5.774   0.962  32.804  0.00  0.00    -0.238 NA
ATOM      3  H   CYS A   1       6.122   1.879  33.150  0.00  0.00    +0.142 HD
ENDBRANCH   1   2
BRANCH   1   4
ATOM      4  C   CYS A   1       5.295  -0.228  34.938  0.00  0.00    +0.225 C 
ATOM      5  O   CYS A   1       5.198   0.803  35.599  0.00  0.00    -0.287 OA
ENDBRANCH   1   4
BRANCH   1   6
ATOM      6  CB  CYS A   1       7.580  -0.374  33.796  0.00  0.00    +0.094 C 
ATOM      7  SG  CYS A   1       8.562  -0.149  32.280  0.00  0.00    -0.080 S 
ENDBRANCH   1   6
TORSDOF 3
REMARK  Name = ../refined-set-2016/4bc5/4bc5_pocket.pdb
REMARK  121 active torsions:
REMARK  status: ('A' for Active; 'I' for Inactive)
REMARK    1  A    between atoms: _1  and  _3
REMARK    2  A    between atoms: _3  and  _4
REMARK    3  A    between atoms: _3  and  _6
REMARK    4  A    between atoms: _6  and  _7
REMARK    5  A    between atoms: _10  and  _12
REMARK    6  A    between atoms: _12  and  _13
REMARK    7  A    between atoms: _12  and  _15
REMARK    8  A    between atoms: _15  and  _16
REMARK    9  A    between atoms: _22  and  _24
REMARK   10  A    between atoms: _24  and  _25
REMARK   11  A    between atoms: _24  and  _27
REMARK   12  A    between atoms: _27  and  _28
REMARK   13  A    between atoms: _30  and  _32
REMARK   14  A    between atoms: _32  and  _33
REMARK   15  A    between atoms: _32  and  _35
REMARK   16  A    between atoms: _35  and  _36
REMARK   17  A    between atoms: _39  and  _41
REMARK   18  A    between atoms: _41  and  _42
REMARK   19  A    between atoms: _41  and  _44
REMARK   20  A    between atoms: _44  and  _45
REMARK   21  A    between atoms: _45  and  _46
REMARK   22  A    between atoms: _51  and  _53
REMARK   23  A    between atoms: _53  and  _54
REMARK   24  A    between atoms: _56  and  _58
REMARK   25  A    between atoms: _58  and  _59
REMARK   26  A    between atoms: _58  and  _61
REMARK   27  A    between atoms: _61  and  _62
REMARK   28  A    between atoms: _62  and  _63
REMARK   29  A    between atoms: _68  and  _70
REMARK   30  A    between atoms: _70  and  _71
REMARK   31  A    between atoms: _70  and  _73
REMARK   32  A    between atoms: _73  and  _74
REMARK   33  A    between atoms: _74  and  _75
REMARK   34  A    between atoms: _80  and  _82
REMARK   35  A    between atoms: _82  and  _83
REMARK   36  A    between atoms: _82  and  _85
REMARK   37  A    between atoms: _85  and  _86
REMARK   38  A    between atoms: _91  and  _93
REMARK   39  A    between atoms: _93  and  _94
REMARK   40  A    between atoms: _96  and  _98
REMARK   41  A    between atoms: _98  and  _99
REMARK   42  A    between atoms: _98  and  _101
REMARK   43  A    between atoms: _104  and  _106
REMARK   44  A    between atoms: _106  and  _107
REMARK   45  A    between atoms: _106  and  _109
REMARK   46  A    between atoms: _109  and  _110
REMARK   47  A    between atoms: _120  and  _122
REMARK   48  A    between atoms: _122  and  _123
REMARK   49  A    between atoms: _122  and  _125
REMARK   50  A    between atoms: _125  and  _126
REMARK   51  A    between atoms: _126  and  _127
REMARK   52  A    between atoms: _129  and  _131
REMARK   53  A    between atoms: _131  and  _132
REMARK   54  A    between atoms: _131  and  _134
REMARK   55  A    between atoms: _134  and  _135
REMARK   56  A    between atoms: _138  and  _140
REMARK   57  A    between atoms: _140  and  _141
REMARK   58  A    between atoms: _140  and  _143
REMARK   59  A    between atoms: _143  and  _144
REMARK   60  A    between atoms: _146  and  _148
REMARK   61  A    between atoms: _148  and  _149
REMARK   62  A    between atoms: _148  and  _151
REMARK   63  A    between atoms: _151  and  _152
REMARK   64  A    between atoms: _157  and  _158
REMARK   65  A    between atoms: _160  and  _162
REMARK   66  A    between atoms: _162  and  _163
REMARK   67  A    between atoms: _162  and  _165
REMARK   68  A    between atoms: _165  and  _166
REMARK   69  A    between atoms: _166  and  _167
REMARK   70  A    between atoms: _167  and  _168
REMARK   71  A    between atoms: _177  and  _179
REMARK   72  A    between atoms: _179  and  _180
REMARK   73  A    between atoms: _179  and  _182
REMARK   74  A    between atoms: _182  and  _183
REMARK   75  A    between atoms: _189  and  _191
REMARK   76  A    between atoms: _191  and  _192
REMARK   77  A    between atoms: _191  and  _194
REMARK   78  A    between atoms: _197  and  _199
REMARK   79  A    between atoms: _199  and  _200
REMARK   80  A    between atoms: _199  and  _202
REMARK   81  A    between atoms: _202  and  _203
REMARK   82  A    between atoms: _206  and  _208
REMARK   83  A    between atoms: _208  and  _209
REMARK   84  A    between atoms: _211  and  _213
REMARK   85  A    between atoms: _213  and  _214
REMARK   86  A    between atoms: _216  and  _218
REMARK   87  A    between atoms: _218  and  _219
REMARK   88  A    between atoms: _218  and  _221
REMARK   89  A    between atoms: _221  and  _222
REMARK   90  A    between atoms: _225  and  _227
REMARK   91  A    between atoms: _227  and  _228
REMARK   92  A    between atoms: _227  and  _230
REMARK   93  A    between atoms: _230  and  _231
REMARK   94  A    between atoms: _237  and  _238
REMARK   95  A    between atoms: _243  and  _245
REMARK   96  A    between atoms: _245  and  _246
REMARK   97  A    between atoms: _245  and  _248
REMARK   98  A    between atoms: _248  and  _249
REMARK   99  A    between atoms: _251  and  _253
REMARK  100  A    between atoms: _253  and  _254
REMARK  101  A    between atoms: _253  and  _256
REMARK  102  A    between atoms: _256  and  _257
REMARK  103  A    between atoms: _260  and  _262
REMARK  104  A    between atoms: _262  and  _263
REMARK  105  A    between atoms: _262  and  _265
REMARK  106  A    between atoms: _265  and  _266
REMARK  107  A    between atoms: _272  and  _274
REMARK  108  A    between atoms: _274  and  _275
REMARK  109  A    between atoms: _274  and  _277
REMARK  110  A    between atoms: _277  and  _278
REMARK  111  A    between atoms: _283  and  _285
REMARK  112  A    between atoms: _285  and  _286
REMARK  113  A    between atoms: _285  and  _288
REMARK  114  A    between atoms: _288  and  _289
REMARK  115  A    between atoms: _295  and  _297
REMARK  116  A    between atoms: _297  and  _298
REMARK  117  A    between atoms: _297  and  _300
REMARK  118  A    between atoms: _300  and  _301
REMARK  119  A    between atoms: _304  and  _306
REMARK  120  A    between atoms: _306  and  _307
REMARK  121  A    between atoms: _306  and  _309
REMARK                            x       y       z     vdW  Elec       q    Type
REMARK                         _______ _______ _______ _____ _____    ______ ____
ROOT
ATOM      1  O   HOH     1      17.457  -7.478  24.812  0.00  0.00    +0.000 OA
ENDROOT
TORSDOF 0
REMARK  Name = ../refined-set-2016/4bc5/4bc5_pocket.pdb
REMARK  121 active torsions:
REMARK  status: ('A' for Active; 'I' for Inactive)
REMARK    1  A    between atoms: _1  and  _3
REMARK    2  A    between atoms: _3  and  _4
REMARK    3  A    between atoms: _3  and  _6
REMARK    4  A    between atoms: _6  and  _7
REMARK    5  A    between atoms: _10  and  _12
REMARK    6  A    between atoms: _12  and  _13
REMARK    7  A    between atoms: _12  and  _15
REMARK    8  A    between atoms: _15  and  _16
REMARK    9  A    between atoms: _22  and  _24
REMARK   10  A    between atoms: _24  and  _25
REMARK   11  A    between atoms: _24  and  _27
REMARK   12  A    between atoms: _27  and  _28
REMARK   13  A    between atoms: _30  and  _32
REMARK   14  A    between atoms: _32  and  _33
REMARK   15  A    between atoms: _32  and  _35
REMARK   16  A    between atoms: _35  and  _36
REMARK   17  A    between atoms: _39  and  _41
REMARK   18  A    between atoms: _41  and  _42
REMARK   19  A    between atoms: _41  and  _44
REMARK   20  A    between atoms: _44  and  _45
REMARK   21  A    between atoms: _45  and  _46
REMARK   22  A    between atoms: _51  and  _53
REMARK   23  A    between atoms: _53  and  _54
REMARK   24  A    between atoms: _56  and  _58
REMARK   25  A    between atoms: _58  and  _59
REMARK   26  A    between atoms: _58  and  _61
REMARK   27  A    between atoms: _61  and  _62
REMARK   28  A    between atoms: _62  and  _63
REMARK   29  A    between atoms: _68  and  _70
REMARK   30  A    between atoms: _70  and  _71
REMARK   31  A    between atoms: _70  and  _73
REMARK   32  A    between atoms: _73  and  _74
REMARK   33  A    between atoms: _74  and  _75
REMARK   34  A    between atoms: _80  and  _82
REMARK   35  A    between atoms: _82  and  _83
REMARK   36  A    between atoms: _82  and  _85
REMARK   37  A    between atoms: _85  and  _86
REMARK   38  A    between atoms: _91  and  _93
REMARK   39  A    between atoms: _93  and  _94
REMARK   40  A    between atoms: _96  and  _98
REMARK   41  A    between atoms: _98  and  _99
REMARK   42  A    between atoms: _98  and  _101
REMARK   43  A    between atoms: _104  and  _106
REMARK   44  A    between atoms: _106  and  _107
REMARK   45  A    between atoms: _106  and  _109
REMARK   46  A    between atoms: _109  and  _110
REMARK   47  A    between atoms: _120  and  _122
REMARK   48  A    between atoms: _122  and  _123
REMARK   49  A    between atoms: _122  and  _125
REMARK   50  A    between atoms: _125  and  _126
REMARK   51  A    between atoms: _126  and  _127
REMARK   52  A    between atoms: _129  and  _131
REMARK   53  A    between atoms: _131  and  _132
REMARK   54  A    between atoms: _131  and  _134
REMARK   55  A    between atoms: _134  and  _135
REMARK   56  A    between atoms: _138  and  _140
REMARK   57  A    between atoms: _140  and  _141
REMARK   58  A    between atoms: _140  and  _143
REMARK   59  A    between atoms: _143  and  _144
REMARK   60  A    between atoms: _146  and  _148
REMARK   61  A    between atoms: _148  and  _149
REMARK   62  A    between atoms: _148  and  _151
REMARK   63  A    between atoms: _151  and  _152
REMARK   64  A    between atoms: _157  and  _158
REMARK   65  A    between atoms: _160  and  _162
REMARK   66  A    between atoms: _162  and  _163
REMARK   67  A    between atoms: _162  and  _165
REMARK   68  A    between atoms: _165  and  _166
REMARK   69  A    between atoms: _166  and  _167
REMARK   70  A    between atoms: _167  and  _168
REMARK   71  A    between atoms: _177  and  _179
REMARK   72  A    between atoms: _179  and  _180
REMARK   73  A    between atoms: _179  and  _182
REMARK   74  A    between atoms: _182  and  _183
REMARK   75  A    between atoms: _189  and  _191
REMARK   76  A    between atoms: _191  and  _192
REMARK   77  A    between atoms: _191  and  _194
REMARK   78  A    between atoms: _197  and  _199
REMARK   79  A    between atoms: _199  and  _200
REMARK   80  A    between atoms: _199  and  _202
REMARK   81  A    between atoms: _202  and  _203
REMARK   82  A    between atoms: _206  and  _208
REMARK   83  A    between atoms: _208  and  _209
REMARK   84  A    between atoms: _211  and  _213
REMARK   85  A    between atoms: _213  and  _214
REMARK   86  A    between atoms: _216  and  _218
REMARK   87  A    between atoms: _218  and  _219
REMARK   88  A    between atoms: _218  and  _221
REMARK   89  A    between atoms: _221  and  _222
REMARK   90  A    between atoms: _225  and  _227
REMARK   91  A    between atoms: _227  and  _228
REMARK   92  A    between atoms: _227  and  _230
REMARK   93  A    between atoms: _230  and  _231
REMARK   94  A    between atoms: _237  and  _238
REMARK   95  A    between atoms: _243  and  _245
REMARK   96  A    between atoms: _245  and  _246
REMARK   97  A    between atoms: _245  and  _248
REMARK   98  A    between atoms: _248  and  _249
REMARK   99  A    between atoms: _251  and  _253
REMARK  100  A    between atoms: _253  and  _254
REMARK  101  A    between atoms: _253  and  _256
REMARK  102  A    between atoms: _256  and  _257
REMARK  103  A    between atoms: _260  and  _262
REMARK  104  A    between atoms: _262  and  _263
REMARK  105  A    between atoms: _262  and  _265
REMARK  106  A    between atoms: _265  and  _266
REMARK  107  A    between atoms: _272  and  _274
REMARK  108  A    between atoms: _274  and  _275
REMARK  109  A    between atoms: _274  and  _277
REMARK  110  A    between atoms: _277  and  _278
REMARK  111  A    between atoms: _283  and  _285
REMARK  112  A    between atoms: _285  and  _286
REMARK  113  A    between atoms: _285  and  _288
REMARK  114  A    between atoms: _288  and  _289
REMARK  115  A    between atoms: _295  and  _297
REMARK  116  A    between atoms: _297  and  _298
REMARK  117  A    between atoms: _297  and  _300
REMARK  118  A    between atoms: _300  and  _301
REMARK  119  A    between atoms: _304  and  _306
REMARK  120  A    between atoms: _306  and  _307
REMARK  121  A    between atoms: _306  and  _309
REMARK                            x       y       z     vdW  Elec       q    Type
REMARK                         _______ _______ _______ _____ _____    ______ ____
ROOT
ATOM      1  O   HOH     1      18.432 -11.737  28.157  0.00  0.00    +0.000 OA
ENDROOT
TORSDOF 0
REMARK  Name = ../refined-set-2016/4bc5/4bc5_pocket.pdb
REMARK  121 active torsions:
REMARK  status: ('A' for Active; 'I' for Inactive)
REMARK    1  A    between atoms: _1  and  _3
REMARK    2  A    between atoms: _3  and  _4
REMARK    3  A    between atoms: _3  and  _6
REMARK    4  A    between atoms: _6  and  _7
REMARK    5  A    between atoms: _10  and  _12
REMARK    6  A    between atoms: _12  and  _13
REMARK    7  A    between atoms: _12  and  _15
REMARK    8  A    between atoms: _15  and  _16
REMARK    9  A    between atoms: _22  and  _24
REMARK   10  A    between atoms: _24  and  _25
REMARK   11  A    between atoms: _24  and  _27
REMARK   12  A    between atoms: _27  and  _28
REMARK   13  A    between atoms: _30  and  _32
REMARK   14  A    between atoms: _32  and  _33
REMARK   15  A    between atoms: _32  and  _35
REMARK   16  A    between atoms: _35  and  _36
REMARK   17  A    between atoms: _39  and  _41
REMARK   18  A    between atoms: _41  and  _42
REMARK   19  A    between atoms: _41  and  _44
REMARK   20  A    between atoms: _44  and  _45
REMARK   21  A    between atoms: _45  and  _46
REMARK   22  A    between atoms: _51  and  _53
REMARK   23  A    between atoms: _53  and  _54
REMARK   24  A    between atoms: _56  and  _58
REMARK   25  A    between atoms: _58  and  _59
REMARK   26  A    between atoms: _58  and  _61
REMARK   27  A    between atoms: _61  and  _62
REMARK   28  A    between atoms: _62  and  _63
REMARK   29  A    between atoms: _68  and  _70
REMARK   30  A    between atoms: _70  and  _71
REMARK   31  A    between atoms: _70  and  _73
REMARK   32  A    between atoms: _73  and  _74
REMARK   33  A    between atoms: _74  and  _75
REMARK   34  A    between atoms: _80  and  _82
REMARK   35  A    between atoms: _82  and  _83
REMARK   36  A    between atoms: _82  and  _85
REMARK   37  A    between atoms: _85  and  _86
REMARK   38  A    between atoms: _91  and  _93
REMARK   39  A    between atoms: _93  and  _94
REMARK   40  A    between atoms: _96  and  _98
REMARK   41  A    between atoms: _98  and  _99
REMARK   42  A    between atoms: _98  and  _101
REMARK   43  A    between atoms: _104  and  _106
REMARK   44  A    between atoms: _106  and  _107
REMARK   45  A    between atoms: _106  and  _109
REMARK   46  A    between atoms: _109  and  _110
REMARK   47  A    between atoms: _120  and  _122
REMARK   48  A    between atoms: _122  and  _123
REMARK   49  A    between atoms: _122  and  _125
REMARK   50  A    between atoms: _125  and  _126
REMARK   51  A    between atoms: _126  and  _127
REMARK   52  A    between atoms: _129  and  _131
REMARK   53  A    between atoms: _131  and  _132
REMARK   54  A    between atoms: _131  and  _134
REMARK   55  A    between atoms: _134  and  _135
REMARK   56  A    between atoms: _138  and  _140
REMARK   57  A    between atoms: _140  and  _141
REMARK   58  A    between atoms: _140  and  _143
REMARK   59  A    between atoms: _143  and  _144
REMARK   60  A    between atoms: _146  and  _148
REMARK   61  A    between atoms: _148  and  _149
REMARK   62  A    between atoms: _148  and  _151
REMARK   63  A    between atoms: _151  and  _152
REMARK   64  A    between atoms: _157  and  _158
REMARK   65  A    between atoms: _160  and  _162
REMARK   66  A    between atoms: _162  and  _163
REMARK   67  A    between atoms: _162  and  _165
REMARK   68  A    between atoms: _165  and  _166
REMARK   69  A    between atoms: _166  and  _167
REMARK   70  A    between atoms: _167  and  _168
REMARK   71  A    between atoms: _177  and  _179
REMARK   72  A    between atoms: _179  and  _180
REMARK   73  A    between atoms: _179  and  _182
REMARK   74  A    between atoms: _182  and  _183
REMARK   75  A    between atoms: _189  and  _191
REMARK   76  A    between atoms: _191  and  _192
REMARK   77  A    between atoms: _191  and  _194
REMARK   78  A    between atoms: _197  and  _199
REMARK   79  A    between atoms: _199  and  _200
REMARK   80  A    between atoms: _199  and  _202
REMARK   81  A    between atoms: _202  and  _203
REMARK   82  A    between atoms: _206  and  _208
REMARK   83  A    between atoms: _208  and  _209
REMARK   84  A    between atoms: _211  and  _213
REMARK   85  A    between atoms: _213  and  _214
REMARK   86  A    between atoms: _216  and  _218
REMARK   87  A    between atoms: _218  and  _219
REMARK   88  A    between atoms: _218  and  _221
REMARK   89  A    between atoms: _221  and  _222
REMARK   90  A    between atoms: _225  and  _227
REMARK   91  A    between atoms: _227  and  _228
REMARK   92  A    between atoms: _227  and  _230
REMARK   93  A    between atoms: _230  and  _231
REMARK   94  A    between atoms: _237  and  _238
REMARK   95  A    between atoms: _243  and  _245
REMARK   96  A    between atoms: _245  and  _246
REMARK   97  A    between atoms: _245  and  _248
REMARK   98  A    between atoms: _248  and  _249
REMARK   99  A    between atoms: _251  and  _253
REMARK  100  A    between atoms: _253  and  _254
REMARK  101  A    between atoms: _253  and  _256
REMARK  102  A    between atoms: _256  and  _257
REMARK  103  A    between atoms: _260  and  _262
REMARK  104  A    between atoms: _262  and  _263
REMARK  105  A    between atoms: _262  and  _265
REMARK  106  A    between atoms: _265  and  _266
REMARK  107  A    between atoms: _272  and  _274
REMARK  108  A    between atoms: _274  and  _275
REMARK  109  A    between atoms: _274  and  _277
REMARK  110  A    between atoms: _277  and  _278
REMARK  111  A    between atoms: _283  and  _285
REMARK  112  A    between atoms: _285  and  _286
REMARK  113  A    between atoms: _285  and  _288
REMARK  114  A    between atoms: _288  and  _289
REMARK  115  A    between atoms: _295  and  _297
REMARK  116  A    between atoms: _297  and  _298
REMARK  117  A    between atoms: _297  and  _300
REMARK  118  A    between atoms: _300  and  _301
REMARK  119  A    between atoms: _304  and  _306
REMARK  120  A    between atoms: _306  and  _307
REMARK  121  A    between atoms: _306  and  _309
REMARK                            x       y       z     vdW  Elec       q    Type
REMARK                         _______ _______ _______ _____ _____    ______ ____
ROOT
ATOM      1  O   HOH     1      17.896  -7.906  28.081  0.00  0.00    +0.000 OA
ENDROOT
TORSDOF 0
REMARK  Name = ../refined-set-2016/4bc5/4bc5_pocket.pdb
REMARK  121 active torsions:
REMARK  status: ('A' for Active; 'I' for Inactive)
REMARK    1  A    between atoms: _1  and  _3
REMARK    2  A    between atoms: _3  and  _4
REMARK    3  A    between atoms: _3  and  _6
REMARK    4  A    between atoms: _6  and  _7
REMARK    5  A    between atoms: _10  and  _12
REMARK    6  A    between atoms: _12  and  _13
REMARK    7  A    between atoms: _12  and  _15
REMARK    8  A    between atoms: _15  and  _16
REMARK    9  A    between atoms: _22  and  _24
REMARK   10  A    between atoms: _24  and  _25
REMARK   11  A    between atoms: _24  and  _27
REMARK   12  A    between atoms: _27  and  _28
REMARK   13  A    between atoms: _30  and  _32
REMARK   14  A    between atoms: _32  and  _33
REMARK   15  A    between atoms: _32  and  _35
REMARK   16  A    between atoms: _35  and  _36
REMARK   17  A    between atoms: _39  and  _41
REMARK   18  A    between atoms: _41  and  _42
REMARK   19  A    between atoms: _41  and  _44
REMARK   20  A    between atoms: _44  and  _45
REMARK   21  A    between atoms: _45  and  _46
REMARK   22  A    between atoms: _51  and  _53
REMARK   23  A    between atoms: _53  and  _54
REMARK   24  A    between atoms: _56  and  _58
REMARK   25  A    between atoms: _58  and  _59
REMARK   26  A    between atoms: _58  and  _61
REMARK   27  A    between atoms: _61  and  _62
REMARK   28  A    between atoms: _62  and  _63
REMARK   29  A    between atoms: _68  and  _70
REMARK   30  A    between atoms: _70  and  _71
REMARK   31  A    between atoms: _70  and  _73
REMARK   32  A    between atoms: _73  and  _74
REMARK   33  A    between atoms: _74  and  _75
REMARK   34  A    between atoms: _80  and  _82
REMARK   35  A    between atoms: _82  and  _83
REMARK   36  A    between atoms: _82  and  _85
REMARK   37  A    between atoms: _85  and  _86
REMARK   38  A    between atoms: _91  and  _93
REMARK   39  A    between atoms: _93  and  _94
REMARK   40  A    between atoms: _96  and  _98
REMARK   41  A    between atoms: _98  and  _99
REMARK   42  A    between atoms: _98  and  _101
REMARK   43  A    between atoms: _104  and  _106
REMARK   44  A    between atoms: _106  and  _107
REMARK   45  A    between atoms: _106  and  _109
REMARK   46  A    between atoms: _109  and  _110
REMARK   47  A    between atoms: _120  and  _122
REMARK   48  A    between atoms: _122  and  _123
REMARK   49  A    between atoms: _122  and  _125
REMARK   50  A    between atoms: _125  and  _126
REMARK   51  A    between atoms: _126  and  _127
REMARK   52  A    between atoms: _129  and  _131
REMARK   53  A    between atoms: _131  and  _132
REMARK   54  A    between atoms: _131  and  _134
REMARK   55  A    between atoms: _134  and  _135
REMARK   56  A    between atoms: _138  and  _140
REMARK   57  A    between atoms: _140  and  _141
REMARK   58  A    between atoms: _140  and  _143
REMARK   59  A    between atoms: _143  and  _144
REMARK   60  A    between atoms: _146  and  _148
REMARK   61  A    between atoms: _148  and  _149
REMARK   62  A    between atoms: _148  and  _151
REMARK   63  A    between atoms: _151  and  _152
REMARK   64  A    between atoms: _157  and  _158
REMARK   65  A    between atoms: _160  and  _162
REMARK   66  A    between atoms: _162  and  _163
REMARK   67  A    between atoms: _162  and  _165
REMARK   68  A    between atoms: _165  and  _166
REMARK   69  A    between atoms: _166  and  _167
REMARK   70  A    between atoms: _167  and  _168
REMARK   71  A    between atoms: _177  and  _179
REMARK   72  A    between atoms: _179  and  _180
REMARK   73  A    between atoms: _179  and  _182
REMARK   74  A    between atoms: _182  and  _183
REMARK   75  A    between atoms: _189  and  _191
REMARK   76  A    between atoms: _191  and  _192
REMARK   77  A    between atoms: _191  and  _194
REMARK   78  A    between atoms: _197  and  _199
REMARK   79  A    between atoms: _199  and  _200
REMARK   80  A    between atoms: _199  and  _202
REMARK   81  A    between atoms: _202  and  _203
REMARK   82  A    between atoms: _206  and  _208
REMARK   83  A    between atoms: _208  and  _209
REMARK   84  A    between atoms: _211  and  _213
REMARK   85  A    between atoms: _213  and  _214
REMARK   86  A    between atoms: _216  and  _218
REMARK   87  A    between atoms: _218  and  _219
REMARK   88  A    between atoms: _218  and  _221
REMARK   89  A    between atoms: _221  and  _222
REMARK   90  A    between atoms: _225  and  _227
REMARK   91  A    between atoms: _227  and  _228
REMARK   92  A    between atoms: _227  and  _230
REMARK   93  A    between atoms: _230  and  _231
REMARK   94  A    between atoms: _237  and  _238
REMARK   95  A    between atoms: _243  and  _245
REMARK   96  A    between atoms: _245  and  _246
REMARK   97  A    between atoms: _245  and  _248
REMARK   98  A    between atoms: _248  and  _249
REMARK   99  A    between atoms: _251  and  _253
REMARK  100  A    between atoms: _253  and  _254
REMARK  101  A    between atoms: _253  and  _256
REMARK  102  A    between atoms: _256  and  _257
REMARK  103  A    between atoms: _260  and  _262
REMARK  104  A    between atoms: _262  and  _263
REMARK  105  A    between atoms: _262  and  _265
REMARK  106  A    between atoms: _265  and  _266
REMARK  107  A    between atoms: _272  and  _274
REMARK  108  A    between atoms: _274  and  _275
REMARK  109  A    between atoms: _274  and  _277
REMARK  110  A    between atoms: _277  and  _278
REMARK  111  A    between atoms: _283  and  _285
REMARK  112  A    between atoms: _285  and  _286
REMARK  113  A    between atoms: _285  and  _288
REMARK  114  A    between atoms: _288  and  _289
REMARK  115  A    between atoms: _295  and  _297
REMARK  116  A    between atoms: _297  and  _298
REMARK  117  A    between atoms: _297  and  _300
REMARK  118  A    between atoms: _300  and  _301
REMARK  119  A    between atoms: _304  and  _306
REMARK  120  A    between atoms: _306  and  _307
REMARK  121  A    between atoms: _306  and  _309
REMARK                            x       y       z     vdW  Elec       q    Type
REMARK                         _______ _______ _______ _____ _____    ______ ____
ROOT
ATOM      1  O   HOH     1      18.143  -9.713  32.499  0.00  0.00    +0.000 OA
ENDROOT
TORSDOF 0
REMARK  Name = ../refined-set-2016/4bc5/4bc5_pocket.pdb
REMARK  121 active torsions:
REMARK  status: ('A' for Active; 'I' for Inactive)
REMARK    1  A    between atoms: _1  and  _3
REMARK    2  A    between atoms: _3  and  _4
REMARK    3  A    between atoms: _3  and  _6
REMARK    4  A    between atoms: _6  and  _7
REMARK    5  A    between atoms: _10  and  _12
REMARK    6  A    between atoms: _12  and  _13
REMARK    7  A    between atoms: _12  and  _15
REMARK    8  A    between atoms: _15  and  _16
REMARK    9  A    between atoms: _22  and  _24
REMARK   10  A    between atoms: _24  and  _25
REMARK   11  A    between atoms: _24  and  _27
REMARK   12  A    between atoms: _27  and  _28
REMARK   13  A    between atoms: _30  and  _32
REMARK   14  A    between atoms: _32  and  _33
REMARK   15  A    between atoms: _32  and  _35
REMARK   16  A    between atoms: _35  and  _36
REMARK   17  A    between atoms: _39  and  _41
REMARK   18  A    between atoms: _41  and  _42
REMARK   19  A    between atoms: _41  and  _44
REMARK   20  A    between atoms: _44  and  _45
REMARK   21  A    between atoms: _45  and  _46
REMARK   22  A    between atoms: _51  and  _53
REMARK   23  A    between atoms: _53  and  _54
REMARK   24  A    between atoms: _56  and  _58
REMARK   25  A    between atoms: _58  and  _59
REMARK   26  A    between atoms: _58  and  _61
REMARK   27  A    between atoms: _61  and  _62
REMARK   28  A    between atoms: _62  and  _63
REMARK   29  A    between atoms: _68  and  _70
REMARK   30  A    between atoms: _70  and  _71
REMARK   31  A    between atoms: _70  and  _73
REMARK   32  A    between atoms: _73  and  _74
REMARK   33  A    between atoms: _74  and  _75
REMARK   34  A    between atoms: _80  and  _82
REMARK   35  A    between atoms: _82  and  _83
REMARK   36  A    between atoms: _82  and  _85
REMARK   37  A    between atoms: _85  and  _86
REMARK   38  A    between atoms: _91  and  _93
REMARK   39  A    between atoms: _93  and  _94
REMARK   40  A    between atoms: _96  and  _98
REMARK   41  A    between atoms: _98  and  _99
REMARK   42  A    between atoms: _98  and  _101
REMARK   43  A    between atoms: _104  and  _106
REMARK   44  A    between atoms: _106  and  _107
REMARK   45  A    between atoms: _106  and  _109
REMARK   46  A    between atoms: _109  and  _110
REMARK   47  A    between atoms: _120  and  _122
REMARK   48  A    between atoms: _122  and  _123
REMARK   49  A    between atoms: _122  and  _125
REMARK   50  A    between atoms: _125  and  _126
REMARK   51  A    between atoms: _126  and  _127
REMARK   52  A    between atoms: _129  and  _131
REMARK   53  A    between atoms: _131  and  _132
REMARK   54  A    between atoms: _131  and  _134
REMARK   55  A    between atoms: _134  and  _135
REMARK   56  A    between atoms: _138  and  _140
REMARK   57  A    between atoms: _140  and  _141
REMARK   58  A    between atoms: _140  and  _143
REMARK   59  A    between atoms: _143  and  _144
REMARK   60  A    between atoms: _146  and  _148
REMARK   61  A    between atoms: _148  and  _149
REMARK   62  A    between atoms: _148  and  _151
REMARK   63  A    between atoms: _151  and  _152
REMARK   64  A    between atoms: _157  and  _158
REMARK   65  A    between atoms: _160  and  _162
REMARK   66  A    between atoms: _162  and  _163
REMARK   67  A    between atoms: _162  and  _165
REMARK   68  A    between atoms: _165  and  _166
REMARK   69  A    between atoms: _166  and  _167
REMARK   70  A    between atoms: _167  and  _168
REMARK   71  A    between atoms: _177  and  _179
REMARK   72  A    between atoms: _179  and  _180
REMARK   73  A    between atoms: _179  and  _182
REMARK   74  A    between atoms: _182  and  _183
REMARK   75  A    between atoms: _189  and  _191
REMARK   76  A    between atoms: _191  and  _192
REMARK   77  A    between atoms: _191  and  _194
REMARK   78  A    between atoms: _197  and  _199
REMARK   79  A    between atoms: _199  and  _200
REMARK   80  A    between atoms: _199  and  _202
REMARK   81  A    between atoms: _202  and  _203
REMARK   82  A    between atoms: _206  and  _208
REMARK   83  A    between atoms: _208  and  _209
REMARK   84  A    between atoms: _211  and  _213
REMARK   85  A    between atoms: _213  and  _214
REMARK   86  A    between atoms: _216  and  _218
REMARK   87  A    between atoms: _218  and  _219
REMARK   88  A    between atoms: _218  and  _221
REMARK   89  A    between atoms: _221  and  _222
REMARK   90  A    between atoms: _225  and  _227
REMARK   91  A    between atoms: _227  and  _228
REMARK   92  A    between atoms: _227  and  _230
REMARK   93  A    between atoms: _230  and  _231
REMARK   94  A    between atoms: _237  and  _238
REMARK   95  A    between atoms: _243  and  _245
REMARK   96  A    between atoms: _245  and  _246
REMARK   97  A    between atoms: _245  and  _248
REMARK   98  A    between atoms: _248  and  _249
REMARK   99  A    between atoms: _251  and  _253
REMARK  100  A    between atoms: _253  and  _254
REMARK  101  A    between atoms: _253  and  _256
REMARK  102  A    between atoms: _256  and  _257
REMARK  103  A    between atoms: _260  and  _262
REMARK  104  A    between atoms: _262  and  _263
REMARK  105  A    between atoms: _262  and  _265
REMARK  106  A    between atoms: _265  and  _266
REMARK  107  A    between atoms: _272  and  _274
REMARK  108  A    between atoms: _274  and  _275
REMARK  109  A    between atoms: _274  and  _277
REMARK  110  A    between atoms: _277  and  _278
REMARK  111  A    between atoms: _283  and  _285
REMARK  112  A    between atoms: _285  and  _286
REMARK  113  A    between atoms: _285  and  _288
REMARK  114  A    between atoms: _288  and  _289
REMARK  115  A    between atoms: _295  and  _297
REMARK  116  A    between atoms: _297  and  _298
REMARK  117  A    between atoms: _297  and  _300
REMARK  118  A    between atoms: _300  and  _301
REMARK  119  A    between atoms: _304  and  _306
REMARK  120  A    between atoms: _306  and  _307
REMARK  121  A    between atoms: _306  and  _309
REMARK                            x       y       z     vdW  Elec       q    Type
REMARK                         _______ _______ _______ _____ _____    ______ ____
ROOT
ATOM      1  O   HOH     1      16.990  -3.448  37.812  0.00  0.00    +0.000 OA
ENDROOT
TORSDOF 0
REMARK  Name = ../refined-set-2016/4bc5/4bc5_pocket.pdb
REMARK  121 active torsions:
REMARK  status: ('A' for Active; 'I' for Inactive)
REMARK    1  A    between atoms: _1  and  _3
REMARK    2  A    between atoms: _3  and  _4
REMARK    3  A    between atoms: _3  and  _6
REMARK    4  A    between atoms: _6  and  _7
REMARK    5  A    between atoms: _10  and  _12
REMARK    6  A    between atoms: _12  and  _13
REMARK    7  A    between atoms: _12  and  _15
REMARK    8  A    between atoms: _15  and  _16
REMARK    9  A    between atoms: _22  and  _24
REMARK   10  A    between atoms: _24  and  _25
REMARK   11  A    between atoms: _24  and  _27
REMARK   12  A    between atoms: _27  and  _28
REMARK   13  A    between atoms: _30  and  _32
REMARK   14  A    between atoms: _32  and  _33
REMARK   15  A    between atoms: _32  and  _35
REMARK   16  A    between atoms: _35  and  _36
REMARK   17  A    between atoms: _39  and  _41
REMARK   18  A    between atoms: _41  and  _42
REMARK   19  A    between atoms: _41  and  _44
REMARK   20  A    between atoms: _44  and  _45
REMARK   21  A    between atoms: _45  and  _46
REMARK   22  A    between atoms: _51  and  _53
REMARK   23  A    between atoms: _53  and  _54
REMARK   24  A    between atoms: _56  and  _58
REMARK   25  A    between atoms: _58  and  _59
REMARK   26  A    between atoms: _58  and  _61
REMARK   27  A    between atoms: _61  and  _62
REMARK   28  A    between atoms: _62  and  _63
REMARK   29  A    between atoms: _68  and  _70
REMARK   30  A    between atoms: _70  and  _71
REMARK   31  A    between atoms: _70  and  _73
REMARK   32  A    between atoms: _73  and  _74
REMARK   33  A    between atoms: _74  and  _75
REMARK   34  A    between atoms: _80  and  _82
REMARK   35  A    between atoms: _82  and  _83
REMARK   36  A    between atoms: _82  and  _85
REMARK   37  A    between atoms: _85  and  _86
REMARK   38  A    between atoms: _91  and  _93
REMARK   39  A    between atoms: _93  and  _94
REMARK   40  A    between atoms: _96  and  _98
REMARK   41  A    between atoms: _98  and  _99
REMARK   42  A    between atoms: _98  and  _101
REMARK   43  A    between atoms: _104  and  _106
REMARK   44  A    between atoms: _106  and  _107
REMARK   45  A    between atoms: _106  and  _109
REMARK   46  A    between atoms: _109  and  _110
REMARK   47  A    between atoms: _120  and  _122
REMARK   48  A    between atoms: _122  and  _123
REMARK   49  A    between atoms: _122  and  _125
REMARK   50  A    between atoms: _125  and  _126
REMARK   51  A    between atoms: _126  and  _127
REMARK   52  A    between atoms: _129  and  _131
REMARK   53  A    between atoms: _131  and  _132
REMARK   54  A    between atoms: _131  and  _134
REMARK   55  A    between atoms: _134  and  _135
REMARK   56  A    between atoms: _138  and  _140
REMARK   57  A    between atoms: _140  and  _141
REMARK   58  A    between atoms: _140  and  _143
REMARK   59  A    between atoms: _143  and  _144
REMARK   60  A    between atoms: _146  and  _148
REMARK   61  A    between atoms: _148  and  _149
REMARK   62  A    between atoms: _148  and  _151
REMARK   63  A    between atoms: _151  and  _152
REMARK   64  A    between atoms: _157  and  _158
REMARK   65  A    between atoms: _160  and  _162
REMARK   66  A    between atoms: _162  and  _163
REMARK   67  A    between atoms: _162  and  _165
REMARK   68  A    between atoms: _165  and  _166
REMARK   69  A    between atoms: _166  and  _167
REMARK   70  A    between atoms: _167  and  _168
REMARK   71  A    between atoms: _177  and  _179
REMARK   72  A    between atoms: _179  and  _180
REMARK   73  A    between atoms: _179  and  _182
REMARK   74  A    between atoms: _182  and  _183
REMARK   75  A    between atoms: _189  and  _191
REMARK   76  A    between atoms: _191  and  _192
REMARK   77  A    between atoms: _191  and  _194
REMARK   78  A    between atoms: _197  and  _199
REMARK   79  A    between atoms: _199  and  _200
REMARK   80  A    between atoms: _199  and  _202
REMARK   81  A    between atoms: _202  and  _203
REMARK   82  A    between atoms: _206  and  _208
REMARK   83  A    between atoms: _208  and  _209
REMARK   84  A    between atoms: _211  and  _213
REMARK   85  A    between atoms: _213  and  _214
REMARK   86  A    between atoms: _216  and  _218
REMARK   87  A    between atoms: _218  and  _219
REMARK   88  A    between atoms: _218  and  _221
REMARK   89  A    between atoms: _221  and  _222
REMARK   90  A    between atoms: _225  and  _227
REMARK   91  A    between atoms: _227  and  _228
REMARK   92  A    between atoms: _227  and  _230
REMARK   93  A    between atoms: _230  and  _231
REMARK   94  A    between atoms: _237  and  _238
REMARK   95  A    between atoms: _243  and  _245
REMARK   96  A    between atoms: _245  and  _246
REMARK   97  A    between atoms: _245  and  _248
REMARK   98  A    between atoms: _248  and  _249
REMARK   99  A    between atoms: _251  and  _253
REMARK  100  A    between atoms: _253  and  _254
REMARK  101  A    between atoms: _253  and  _256
REMARK  102  A    between atoms: _256  and  _257
REMARK  103  A    between atoms: _260  and  _262
REMARK  104  A    between atoms: _262  and  _263
REMARK  105  A    between atoms: _262  and  _265
REMARK  106  A    between atoms: _265  and  _266
REMARK  107  A    between atoms: _272  and  _274
REMARK  108  A    between atoms: _274  and  _275
REMARK  109  A    between atoms: _274  and  _277
REMARK  110  A    between atoms: _277  and  _278
REMARK  111  A    between atoms: _283  and  _285
REMARK  112  A    between atoms: _285  and  _286
REMARK  113  A    between atoms: _285  and  _288
REMARK  114  A    between atoms: _288  and  _289
REMARK  115  A    between atoms: _295  and  _297
REMARK  116  A    between atoms: _297  and  _298
REMARK  117  A    between atoms: _297  and  _300
REMARK  118  A    between atoms: _300  and  _301
REMARK  119  A    between atoms: _304  and  _306
REMARK  120  A    between atoms: _306  and  _307
REMARK  121  A    between atoms: _306  and  _309
REMARK                            x       y       z     vdW  Elec       q    Type
REMARK                         _______ _______ _______ _____ _____    ______ ____
ROOT
ATOM      1  O   HOH     1      21.270  -0.570  23.138  0.00  0.00    +0.000 OA
ENDROOT
TORSDOF 0
REMARK  Name = ../refined-set-2016/4bc5/4bc5_pocket.pdb
REMARK  121 active torsions:
REMARK  status: ('A' for Active; 'I' for Inactive)
REMARK    1  A    between atoms: _1  and  _3
REMARK    2  A    between atoms: _3  and  _4
REMARK    3  A    between atoms: _3  and  _6
REMARK    4  A    between atoms: _6  and  _7
REMARK    5  A    between atoms: _10  and  _12
REMARK    6  A    between atoms: _12  and  _13
REMARK    7  A    between atoms: _12  and  _15
REMARK    8  A    between atoms: _15  and  _16
REMARK    9  A    between atoms: _22  and  _24
REMARK   10  A    between atoms: _24  and  _25
REMARK   11  A    between atoms: _24  and  _27
REMARK   12  A    between atoms: _27  and  _28
REMARK   13  A    between atoms: _30  and  _32
REMARK   14  A    between atoms: _32  and  _33
REMARK   15  A    between atoms: _32  and  _35
REMARK   16  A    between atoms: _35  and  _36
REMARK   17  A    between atoms: _39  and  _41
REMARK   18  A    between atoms: _41  and  _42
REMARK   19  A    between atoms: _41  and  _44
REMARK   20  A    between atoms: _44  and  _45
REMARK   21  A    between atoms: _45  and  _46
REMARK   22  A    between atoms: _51  and  _53
REMARK   23  A    between atoms: _53  and  _54
REMARK   24  A    between atoms: _56  and  _58
REMARK   25  A    between atoms: _58  and  _59
REMARK   26  A    between atoms: _58  and  _61
REMARK   27  A    between atoms: _61  and  _62
REMARK   28  A    between atoms: _62  and  _63
REMARK   29  A    between atoms: _68  and  _70
REMARK   30  A    between atoms: _70  and  _71
REMARK   31  A    between atoms: _70  and  _73
REMARK   32  A    between atoms: _73  and  _74
REMARK   33  A    between atoms: _74  and  _75
REMARK   34  A    between atoms: _80  and  _82
REMARK   35  A    between atoms: _82  and  _83
REMARK   36  A    between atoms: _82  and  _85
REMARK   37  A    between atoms: _85  and  _86
REMARK   38  A    between atoms: _91  and  _93
REMARK   39  A    between atoms: _93  and  _94
REMARK   40  A    between atoms: _96  and  _98
REMARK   41  A    between atoms: _98  and  _99
REMARK   42  A    between atoms: _98  and  _101
REMARK   43  A    between atoms: _104  and  _106
REMARK   44  A    between atoms: _106  and  _107
REMARK   45  A    between atoms: _106  and  _109
REMARK   46  A    between atoms: _109  and  _110
REMARK   47  A    between atoms: _120  and  _122
REMARK   48  A    between atoms: _122  and  _123
REMARK   49  A    between atoms: _122  and  _125
REMARK   50  A    between atoms: _125  and  _126
REMARK   51  A    between atoms: _126  and  _127
REMARK   52  A    between atoms: _129  and  _131
REMARK   53  A    between atoms: _131  and  _132
REMARK   54  A    between atoms: _131  and  _134
REMARK   55  A    between atoms: _134  and  _135
REMARK   56  A    between atoms: _138  and  _140
REMARK   57  A    between atoms: _140  and  _141
REMARK   58  A    between atoms: _140  and  _143
REMARK   59  A    between atoms: _143  and  _144
REMARK   60  A    between atoms: _146  and  _148
REMARK   61  A    between atoms: _148  and  _149
REMARK   62  A    between atoms: _148  and  _151
REMARK   63  A    between atoms: _151  and  _152
REMARK   64  A    between atoms: _157  and  _158
REMARK   65  A    between atoms: _160  and  _162
REMARK   66  A    between atoms: _162  and  _163
REMARK   67  A    between atoms: _162  and  _165
REMARK   68  A    between atoms: _165  and  _166
REMARK   69  A    between atoms: _166  and  _167
REMARK   70  A    between atoms: _167  and  _168
REMARK   71  A    between atoms: _177  and  _179
REMARK   72  A    between atoms: _179  and  _180
REMARK   73  A    between atoms: _179  and  _182
REMARK   74  A    between atoms: _182  and  _183
REMARK   75  A    between atoms: _189  and  _191
REMARK   76  A    between atoms: _191  and  _192
REMARK   77  A    between atoms: _191  and  _194
REMARK   78  A    between atoms: _197  and  _199
REMARK   79  A    between atoms: _199  and  _200
REMARK   80  A    between atoms: _199  and  _202
REMARK   81  A    between atoms: _202  and  _203
REMARK   82  A    between atoms: _206  and  _208
REMARK   83  A    between atoms: _208  and  _209
REMARK   84  A    between atoms: _211  and  _213
REMARK   85  A    between atoms: _213  and  _214
REMARK   86  A    between atoms: _216  and  _218
REMARK   87  A    between atoms: _218  and  _219
REMARK   88  A    between atoms: _218  and  _221
REMARK   89  A    between atoms: _221  and  _222
REMARK   90  A    between atoms: _225  and  _227
REMARK   91  A    between atoms: _227  and  _228
REMARK   92  A    between atoms: _227  and  _230
REMARK   93  A    between atoms: _230  and  _231
REMARK   94  A    between atoms: _237  and  _238
REMARK   95  A    between atoms: _243  and  _245
REMARK   96  A    between atoms: _245  and  _246
REMARK   97  A    between atoms: _245  and  _248
REMARK   98  A    between atoms: _248  and  _249
REMARK   99  A    between atoms: _251  and  _253
REMARK  100  A    between atoms: _253  and  _254
REMARK  101  A    between atoms: _253  and  _256
REMARK  102  A    between atoms: _256  and  _257
REMARK  103  A    between atoms: _260  and  _262
REMARK  104  A    between atoms: _262  and  _263
REMARK  105  A    between atoms: _262  and  _265
REMARK  106  A    between atoms: _265  and  _266
REMARK  107  A    between atoms: _272  and  _274
REMARK  108  A    between atoms: _274  and  _275
REMARK  109  A    between atoms: _274  and  _277
REMARK  110  A    between atoms: _277  and  _278
REMARK  111  A    between atoms: _283  and  _285
REMARK  112  A    between atoms: _285  and  _286
REMARK  113  A    between atoms: _285  and  _288
REMARK  114  A    between atoms: _288  and  _289
REMARK  115  A    between atoms: _295  and  _297
REMARK  116  A    between atoms: _297  and  _298
REMARK  117  A    between atoms: _297  and  _300
REMARK  118  A    between atoms: _300  and  _301
REMARK  119  A    between atoms: _304  and  _306
REMARK  120  A    between atoms: _306  and  _307
REMARK  121  A    between atoms: _306  and  _309
REMARK                            x       y       z     vdW  Elec       q    Type
REMARK                         _______ _______ _______ _____ _____    ______ ____
ROOT
ATOM      1  O   HOH     1      21.809  -2.663  28.978  0.00  0.00    +0.000 OA
ENDROOT
TORSDOF 0
REMARK  Name = ../refined-set-2016/4bc5/4bc5_pocket.pdb
REMARK  121 active torsions:
REMARK  status: ('A' for Active; 'I' for Inactive)
REMARK    1  A    between atoms: _1  and  _3
REMARK    2  A    between atoms: _3  and  _4
REMARK    3  A    between atoms: _3  and  _6
REMARK    4  A    between atoms: _6  and  _7
REMARK    5  A    between atoms: _10  and  _12
REMARK    6  A    between atoms: _12  and  _13
REMARK    7  A    between atoms: _12  and  _15
REMARK    8  A    between atoms: _15  and  _16
REMARK    9  A    between atoms: _22  and  _24
REMARK   10  A    between atoms: _24  and  _25
REMARK   11  A    between atoms: _24  and  _27
REMARK   12  A    between atoms: _27  and  _28
REMARK   13  A    between atoms: _30  and  _32
REMARK   14  A    between atoms: _32  and  _33
REMARK   15  A    between atoms: _32  and  _35
REMARK   16  A    between atoms: _35  and  _36
REMARK   17  A    between atoms: _39  and  _41
REMARK   18  A    between atoms: _41  and  _42
REMARK   19  A    between atoms: _41  and  _44
REMARK   20  A    between atoms: _44  and  _45
REMARK   21  A    between atoms: _45  and  _46
REMARK   22  A    between atoms: _51  and  _53
REMARK   23  A    between atoms: _53  and  _54
REMARK   24  A    between atoms: _56  and  _58
REMARK   25  A    between atoms: _58  and  _59
REMARK   26  A    between atoms: _58  and  _61
REMARK   27  A    between atoms: _61  and  _62
REMARK   28  A    between atoms: _62  and  _63
REMARK   29  A    between atoms: _68  and  _70
REMARK   30  A    between atoms: _70  and  _71
REMARK   31  A    between atoms: _70  and  _73
REMARK   32  A    between atoms: _73  and  _74
REMARK   33  A    between atoms: _74  and  _75
REMARK   34  A    between atoms: _80  and  _82
REMARK   35  A    between atoms: _82  and  _83
REMARK   36  A    between atoms: _82  and  _85
REMARK   37  A    between atoms: _85  and  _86
REMARK   38  A    between atoms: _91  and  _93
REMARK   39  A    between atoms: _93  and  _94
REMARK   40  A    between atoms: _96  and  _98
REMARK   41  A    between atoms: _98  and  _99
REMARK   42  A    between atoms: _98  and  _101
REMARK   43  A    between atoms: _104  and  _106
REMARK   44  A    between atoms: _106  and  _107
REMARK   45  A    between atoms: _106  and  _109
REMARK   46  A    between atoms: _109  and  _110
REMARK   47  A    between atoms: _120  and  _122
REMARK   48  A    between atoms: _122  and  _123
REMARK   49  A    between atoms: _122  and  _125
REMARK   50  A    between atoms: _125  and  _126
REMARK   51  A    between atoms: _126  and  _127
REMARK   52  A    between atoms: _129  and  _131
REMARK   53  A    between atoms: _131  and  _132
REMARK   54  A    between atoms: _131  and  _134
REMARK   55  A    between atoms: _134  and  _135
REMARK   56  A    between atoms: _138  and  _140
REMARK   57  A    between atoms: _140  and  _141
REMARK   58  A    between atoms: _140  and  _143
REMARK   59  A    between atoms: _143  and  _144
REMARK   60  A    between atoms: _146  and  _148
REMARK   61  A    between atoms: _148  and  _149
REMARK   62  A    between atoms: _148  and  _151
REMARK   63  A    between atoms: _151  and  _152
REMARK   64  A    between atoms: _157  and  _158
REMARK   65  A    between atoms: _160  and  _162
REMARK   66  A    between atoms: _162  and  _163
REMARK   67  A    between atoms: _162  and  _165
REMARK   68  A    between atoms: _165  and  _166
REMARK   69  A    between atoms: _166  and  _167
REMARK   70  A    between atoms: _167  and  _168
REMARK   71  A    between atoms: _177  and  _179
REMARK   72  A    between atoms: _179  and  _180
REMARK   73  A    between atoms: _179  and  _182
REMARK   74  A    between atoms: _182  and  _183
REMARK   75  A    between atoms: _189  and  _191
REMARK   76  A    between atoms: _191  and  _192
REMARK   77  A    between atoms: _191  and  _194
REMARK   78  A    between atoms: _197  and  _199
REMARK   79  A    between atoms: _199  and  _200
REMARK   80  A    between atoms: _199  and  _202
REMARK   81  A    between atoms: _202  and  _203
REMARK   82  A    between atoms: _206  and  _208
REMARK   83  A    between atoms: _208  and  _209
REMARK   84  A    between atoms: _211  and  _213
REMARK   85  A    between atoms: _213  and  _214
REMARK   86  A    between atoms: _216  and  _218
REMARK   87  A    between atoms: _218  and  _219
REMARK   88  A    between atoms: _218  and  _221
REMARK   89  A    between atoms: _221  and  _222
REMARK   90  A    between atoms: _225  and  _227
REMARK   91  A    between atoms: _227  and  _228
REMARK   92  A    between atoms: _227  and  _230
REMARK   93  A    between atoms: _230  and  _231
REMARK   94  A    between atoms: _237  and  _238
REMARK   95  A    between atoms: _243  and  _245
REMARK   96  A    between atoms: _245  and  _246
REMARK   97  A    between atoms: _245  and  _248
REMARK   98  A    between atoms: _248  and  _249
REMARK   99  A    between atoms: _251  and  _253
REMARK  100  A    between atoms: _253  and  _254
REMARK  101  A    between atoms: _253  and  _256
REMARK  102  A    between atoms: _256  and  _257
REMARK  103  A    between atoms: _260  and  _262
REMARK  104  A    between atoms: _262  and  _263
REMARK  105  A    between atoms: _262  and  _265
REMARK  106  A    between atoms: _265  and  _266
REMARK  107  A    between atoms: _272  and  _274
REMARK  108  A    between atoms: _274  and  _275
REMARK  109  A    between atoms: _274  and  _277
REMARK  110  A    between atoms: _277  and  _278
REMARK  111  A    between atoms: _283  and  _285
REMARK  112  A    between atoms: _285  and  _286
REMARK  113  A    between atoms: _285  and  _288
REMARK  114  A    between atoms: _288  and  _289
REMARK  115  A    between atoms: _295  and  _297
REMARK  116  A    between atoms: _297  and  _298
REMARK  117  A    between atoms: _297  and  _300
REMARK  118  A    between atoms: _300  and  _301
REMARK  119  A    between atoms: _304  and  _306
REMARK  120  A    between atoms: _306  and  _307
REMARK  121  A    between atoms: _306  and  _309
REMARK                            x       y       z     vdW  Elec       q    Type
REMARK                         _______ _______ _______ _____ _____    ______ ____
ROOT
ATOM      1  O   HOH     1      18.752   3.056  24.881  0.00  0.00    +0.000 OA
ENDROOT
TORSDOF 0
REMARK  Name = ../refined-set-2016/4bc5/4bc5_pocket.pdb
REMARK  121 active torsions:
REMARK  status: ('A' for Active; 'I' for Inactive)
REMARK    1  A    between atoms: _1  and  _3
REMARK    2  A    between atoms: _3  and  _4
REMARK    3  A    between atoms: _3  and  _6
REMARK    4  A    between atoms: _6  and  _7
REMARK    5  A    between atoms: _10  and  _12
REMARK    6  A    between atoms: _12  and  _13
REMARK    7  A    between atoms: _12  and  _15
REMARK    8  A    between atoms: _15  and  _16
REMARK    9  A    between atoms: _22  and  _24
REMARK   10  A    between atoms: _24  and  _25
REMARK   11  A    between atoms: _24  and  _27
REMARK   12  A    between atoms: _27  and  _28
REMARK   13  A    between atoms: _30  and  _32
REMARK   14  A    between atoms: _32  and  _33
REMARK   15  A    between atoms: _32  and  _35
REMARK   16  A    between atoms: _35  and  _36
REMARK   17  A    between atoms: _39  and  _41
REMARK   18  A    between atoms: _41  and  _42
REMARK   19  A    between atoms: _41  and  _44
REMARK   20  A    between atoms: _44  and  _45
REMARK   21  A    between atoms: _45  and  _46
REMARK   22  A    between atoms: _51  and  _53
REMARK   23  A    between atoms: _53  and  _54
REMARK   24  A    between atoms: _56  and  _58
REMARK   25  A    between atoms: _58  and  _59
REMARK   26  A    between atoms: _58  and  _61
REMARK   27  A    between atoms: _61  and  _62
REMARK   28  A    between atoms: _62  and  _63
REMARK   29  A    between atoms: _68  and  _70
REMARK   30  A    between atoms: _70  and  _71
REMARK   31  A    between atoms: _70  and  _73
REMARK   32  A    between atoms: _73  and  _74
REMARK   33  A    between atoms: _74  and  _75
REMARK   34  A    between atoms: _80  and  _82
REMARK   35  A    between atoms: _82  and  _83
REMARK   36  A    between atoms: _82  and  _85
REMARK   37  A    between atoms: _85  and  _86
REMARK   38  A    between atoms: _91  and  _93
REMARK   39  A    between atoms: _93  and  _94
REMARK   40  A    between atoms: _96  and  _98
REMARK   41  A    between atoms: _98  and  _99
REMARK   42  A    between atoms: _98  and  _101
REMARK   43  A    between atoms: _104  and  _106
REMARK   44  A    between atoms: _106  and  _107
REMARK   45  A    between atoms: _106  and  _109
REMARK   46  A    between atoms: _109  and  _110
REMARK   47  A    between atoms: _120  and  _122
REMARK   48  A    between atoms: _122  and  _123
REMARK   49  A    between atoms: _122  and  _125
REMARK   50  A    between atoms: _125  and  _126
REMARK   51  A    between atoms: _126  and  _127
REMARK   52  A    between atoms: _129  and  _131
REMARK   53  A    between atoms: _131  and  _132
REMARK   54  A    between atoms: _131  and  _134
REMARK   55  A    between atoms: _134  and  _135
REMARK   56  A    between atoms: _138  and  _140
REMARK   57  A    between atoms: _140  and  _141
REMARK   58  A    between atoms: _140  and  _143
REMARK   59  A    between atoms: _143  and  _144
REMARK   60  A    between atoms: _146  and  _148
REMARK   61  A    between atoms: _148  and  _149
REMARK   62  A    between atoms: _148  and  _151
REMARK   63  A    between atoms: _151  and  _152
REMARK   64  A    between atoms: _157  and  _158
REMARK   65  A    between atoms: _160  and  _162
REMARK   66  A    between atoms: _162  and  _163
REMARK   67  A    between atoms: _162  and  _165
REMARK   68  A    between atoms: _165  and  _166
REMARK   69  A    between atoms: _166  and  _167
REMARK   70  A    between atoms: _167  and  _168
REMARK   71  A    between atoms: _177  and  _179
REMARK   72  A    between atoms: _179  and  _180
REMARK   73  A    between atoms: _179  and  _182
REMARK   74  A    between atoms: _182  and  _183
REMARK   75  A    between atoms: _189  and  _191
REMARK   76  A    between atoms: _191  and  _192
REMARK   77  A    between atoms: _191  and  _194
REMARK   78  A    between atoms: _197  and  _199
REMARK   79  A    between atoms: _199  and  _200
REMARK   80  A    between atoms: _199  and  _202
REMARK   81  A    between atoms: _202  and  _203
REMARK   82  A    between atoms: _206  and  _208
REMARK   83  A    between atoms: _208  and  _209
REMARK   84  A    between atoms: _211  and  _213
REMARK   85  A    between atoms: _213  and  _214
REMARK   86  A    between atoms: _216  and  _218
REMARK   87  A    between atoms: _218  and  _219
REMARK   88  A    between atoms: _218  and  _221
REMARK   89  A    between atoms: _221  and  _222
REMARK   90  A    between atoms: _225  and  _227
REMARK   91  A    between atoms: _227  and  _228
REMARK   92  A    between atoms: _227  and  _230
REMARK   93  A    between atoms: _230  and  _231
REMARK   94  A    between atoms: _237  and  _238
REMARK   95  A    between atoms: _243  and  _245
REMARK   96  A    between atoms: _245  and  _246
REMARK   97  A    between atoms: _245  and  _248
REMARK   98  A    between atoms: _248  and  _249
REMARK   99  A    between atoms: _251  and  _253
REMARK  100  A    between atoms: _253  and  _254
REMARK  101  A    between atoms: _253  and  _256
REMARK  102  A    between atoms: _256  and  _257
REMARK  103  A    between atoms: _260  and  _262
REMARK  104  A    between atoms: _262  and  _263
REMARK  105  A    between atoms: _262  and  _265
REMARK  106  A    between atoms: _265  and  _266
REMARK  107  A    between atoms: _272  and  _274
REMARK  108  A    between atoms: _274  and  _275
REMARK  109  A    between atoms: _274  and  _277
REMARK  110  A    between atoms: _277  and  _278
REMARK  111  A    between atoms: _283  and  _285
REMARK  112  A    between atoms: _285  and  _286
REMARK  113  A    between atoms: _285  and  _288
REMARK  114  A    between atoms: _288  and  _289
REMARK  115  A    between atoms: _295  and  _297
REMARK  116  A    between atoms: _297  and  _298
REMARK  117  A    between atoms: _297  and  _300
REMARK  118  A    between atoms: _300  and  _301
REMARK  119  A    between atoms: _304  and  _306
REMARK  120  A    between atoms: _306  and  _307
REMARK  121  A    between atoms: _306  and  _309
REMARK                            x       y       z     vdW  Elec       q    Type
REMARK                         _______ _______ _______ _____ _____    ______ ____
ROOT
ATOM      1  O   HOH     1      23.055   2.023  31.651  0.00  0.00    +0.000 OA
ENDROOT
TORSDOF 0
REMARK  Name = ../refined-set-2016/4bc5/4bc5_pocket.pdb
REMARK  121 active torsions:
REMARK  status: ('A' for Active; 'I' for Inactive)
REMARK    1  A    between atoms: _1  and  _3
REMARK    2  A    between atoms: _3  and  _4
REMARK    3  A    between atoms: _3  and  _6
REMARK    4  A    between atoms: _6  and  _7
REMARK    5  A    between atoms: _10  and  _12
REMARK    6  A    between atoms: _12  and  _13
REMARK    7  A    between atoms: _12  and  _15
REMARK    8  A    between atoms: _15  and  _16
REMARK    9  A    between atoms: _22  and  _24
REMARK   10  A    between atoms: _24  and  _25
REMARK   11  A    between atoms: _24  and  _27
REMARK   12  A    between atoms: _27  and  _28
REMARK   13  A    between atoms: _30  and  _32
REMARK   14  A    between atoms: _32  and  _33
REMARK   15  A    between atoms: _32  and  _35
REMARK   16  A    between atoms: _35  and  _36
REMARK   17  A    between atoms: _39  and  _41
REMARK   18  A    between atoms: _41  and  _42
REMARK   19  A    between atoms: _41  and  _44
REMARK   20  A    between atoms: _44  and  _45
REMARK   21  A    between atoms: _45  and  _46
REMARK   22  A    between atoms: _51  and  _53
REMARK   23  A    between atoms: _53  and  _54
REMARK   24  A    between atoms: _56  and  _58
REMARK   25  A    between atoms: _58  and  _59
REMARK   26  A    between atoms: _58  and  _61
REMARK   27  A    between atoms: _61  and  _62
REMARK   28  A    between atoms: _62  and  _63
REMARK   29  A    between atoms: _68  and  _70
REMARK   30  A    between atoms: _70  and  _71
REMARK   31  A    between atoms: _70  and  _73
REMARK   32  A    between atoms: _73  and  _74
REMARK   33  A    between atoms: _74  and  _75
REMARK   34  A    between atoms: _80  and  _82
REMARK   35  A    between atoms: _82  and  _83
REMARK   36  A    between atoms: _82  and  _85
REMARK   37  A    between atoms: _85  and  _86
REMARK   38  A    between atoms: _91  and  _93
REMARK   39  A    between atoms: _93  and  _94
REMARK   40  A    between atoms: _96  and  _98
REMARK   41  A    between atoms: _98  and  _99
REMARK   42  A    between atoms: _98  and  _101
REMARK   43  A    between atoms: _104  and  _106
REMARK   44  A    between atoms: _106  and  _107
REMARK   45  A    between atoms: _106  and  _109
REMARK   46  A    between atoms: _109  and  _110
REMARK   47  A    between atoms: _120  and  _122
REMARK   48  A    between atoms: _122  and  _123
REMARK   49  A    between atoms: _122  and  _125
REMARK   50  A    between atoms: _125  and  _126
REMARK   51  A    between atoms: _126  and  _127
REMARK   52  A    between atoms: _129  and  _131
REMARK   53  A    between atoms: _131  and  _132
REMARK   54  A    between atoms: _131  and  _134
REMARK   55  A    between atoms: _134  and  _135
REMARK   56  A    between atoms: _138  and  _140
REMARK   57  A    between atoms: _140  and  _141
REMARK   58  A    between atoms: _140  and  _143
REMARK   59  A    between atoms: _143  and  _144
REMARK   60  A    between atoms: _146  and  _148
REMARK   61  A    between atoms: _148  and  _149
REMARK   62  A    between atoms: _148  and  _151
REMARK   63  A    between atoms: _151  and  _152
REMARK   64  A    between atoms: _157  and  _158
REMARK   65  A    between atoms: _160  and  _162
REMARK   66  A    between atoms: _162  and  _163
REMARK   67  A    between atoms: _162  and  _165
REMARK   68  A    between atoms: _165  and  _166
REMARK   69  A    between atoms: _166  and  _167
REMARK   70  A    between atoms: _167  and  _168
REMARK   71  A    between atoms: _177  and  _179
REMARK   72  A    between atoms: _179  and  _180
REMARK   73  A    between atoms: _179  and  _182
REMARK   74  A    between atoms: _182  and  _183
REMARK   75  A    between atoms: _189  and  _191
REMARK   76  A    between atoms: _191  and  _192
REMARK   77  A    between atoms: _191  and  _194
REMARK   78  A    between atoms: _197  and  _199
REMARK   79  A    between atoms: _199  and  _200
REMARK   80  A    between atoms: _199  and  _202
REMARK   81  A    between atoms: _202  and  _203
REMARK   82  A    between atoms: _206  and  _208
REMARK   83  A    between atoms: _208  and  _209
REMARK   84  A    between atoms: _211  and  _213
REMARK   85  A    between atoms: _213  and  _214
REMARK   86  A    between atoms: _216  and  _218
REMARK   87  A    between atoms: _218  and  _219
REMARK   88  A    between atoms: _218  and  _221
REMARK   89  A    between atoms: _221  and  _222
REMARK   90  A    between atoms: _225  and  _227
REMARK   91  A    between atoms: _227  and  _228
REMARK   92  A    between atoms: _227  and  _230
REMARK   93  A    between atoms: _230  and  _231
REMARK   94  A    between atoms: _237  and  _238
REMARK   95  A    between atoms: _243  and  _245
REMARK   96  A    between atoms: _245  and  _246
REMARK   97  A    between atoms: _245  and  _248
REMARK   98  A    between atoms: _248  and  _249
REMARK   99  A    between atoms: _251  and  _253
REMARK  100  A    between atoms: _253  and  _254
REMARK  101  A    between atoms: _253  and  _256
REMARK  102  A    between atoms: _256  and  _257
REMARK  103  A    between atoms: _260  and  _262
REMARK  104  A    between atoms: _262  and  _263
REMARK  105  A    between atoms: _262  and  _265
REMARK  106  A    between atoms: _265  and  _266
REMARK  107  A    between atoms: _272  and  _274
REMARK  108  A    between atoms: _274  and  _275
REMARK  109  A    between atoms: _274  and  _277
REMARK  110  A    between atoms: _277  and  _278
REMARK  111  A    between atoms: _283  and  _285
REMARK  112  A    between atoms: _285  and  _286
REMARK  113  A    between atoms: _285  and  _288
REMARK  114  A    between atoms: _288  and  _289
REMARK  115  A    between atoms: _295  and  _297
REMARK  116  A    between atoms: _297  and  _298
REMARK  117  A    between atoms: _297  and  _300
REMARK  118  A    between atoms: _300  and  _301
REMARK  119  A    between atoms: _304  and  _306
REMARK  120  A    between atoms: _306  and  _307
REMARK  121  A    between atoms: _306  and  _309
REMARK                            x       y       z     vdW  Elec       q    Type
REMARK                         _______ _______ _______ _____ _____    ______ ____
ROOT
ATOM      1  O   HOH     1      16.923  -0.811  36.307  0.00  0.00    +0.000 OA
ENDROOT
TORSDOF 0
REMARK  Name = ../refined-set-2016/4bc5/4bc5_pocket.pdb
REMARK  121 active torsions:
REMARK  status: ('A' for Active; 'I' for Inactive)
REMARK    1  A    between atoms: _1  and  _3
REMARK    2  A    between atoms: _3  and  _4
REMARK    3  A    between atoms: _3  and  _6
REMARK    4  A    between atoms: _6  and  _7
REMARK    5  A    between atoms: _10  and  _12
REMARK    6  A    between atoms: _12  and  _13
REMARK    7  A    between atoms: _12  and  _15
REMARK    8  A    between atoms: _15  and  _16
REMARK    9  A    between atoms: _22  and  _24
REMARK   10  A    between atoms: _24  and  _25
REMARK   11  A    between atoms: _24  and  _27
REMARK   12  A    between atoms: _27  and  _28
REMARK   13  A    between atoms: _30  and  _32
REMARK   14  A    between atoms: _32  and  _33
REMARK   15  A    between atoms: _32  and  _35
REMARK   16  A    between atoms: _35  and  _36
REMARK   17  A    between atoms: _39  and  _41
REMARK   18  A    between atoms: _41  and  _42
REMARK   19  A    between atoms: _41  and  _44
REMARK   20  A    between atoms: _44  and  _45
REMARK   21  A    between atoms: _45  and  _46
REMARK   22  A    between atoms: _51  and  _53
REMARK   23  A    between atoms: _53  and  _54
REMARK   24  A    between atoms: _56  and  _58
REMARK   25  A    between atoms: _58  and  _59
REMARK   26  A    between atoms: _58  and  _61
REMARK   27  A    between atoms: _61  and  _62
REMARK   28  A    between atoms: _62  and  _63
REMARK   29  A    between atoms: _68  and  _70
REMARK   30  A    between atoms: _70  and  _71
REMARK   31  A    between atoms: _70  and  _73
REMARK   32  A    between atoms: _73  and  _74
REMARK   33  A    between atoms: _74  and  _75
REMARK   34  A    between atoms: _80  and  _82
REMARK   35  A    between atoms: _82  and  _83
REMARK   36  A    between atoms: _82  and  _85
REMARK   37  A    between atoms: _85  and  _86
REMARK   38  A    between atoms: _91  and  _93
REMARK   39  A    between atoms: _93  and  _94
REMARK   40  A    between atoms: _96  and  _98
REMARK   41  A    between atoms: _98  and  _99
REMARK   42  A    between atoms: _98  and  _101
REMARK   43  A    between atoms: _104  and  _106
REMARK   44  A    between atoms: _106  and  _107
REMARK   45  A    between atoms: _106  and  _109
REMARK   46  A    between atoms: _109  and  _110
REMARK   47  A    between atoms: _120  and  _122
REMARK   48  A    between atoms: _122  and  _123
REMARK   49  A    between atoms: _122  and  _125
REMARK   50  A    between atoms: _125  and  _126
REMARK   51  A    between atoms: _126  and  _127
REMARK   52  A    between atoms: _129  and  _131
REMARK   53  A    between atoms: _131  and  _132
REMARK   54  A    between atoms: _131  and  _134
REMARK   55  A    between atoms: _134  and  _135
REMARK   56  A    between atoms: _138  and  _140
REMARK   57  A    between atoms: _140  and  _141
REMARK   58  A    between atoms: _140  and  _143
REMARK   59  A    between atoms: _143  and  _144
REMARK   60  A    between atoms: _146  and  _148
REMARK   61  A    between atoms: _148  and  _149
REMARK   62  A    between atoms: _148  and  _151
REMARK   63  A    between atoms: _151  and  _152
REMARK   64  A    between atoms: _157  and  _158
REMARK   65  A    between atoms: _160  and  _162
REMARK   66  A    between atoms: _162  and  _163
REMARK   67  A    between atoms: _162  and  _165
REMARK   68  A    between atoms: _165  and  _166
REMARK   69  A    between atoms: _166  and  _167
REMARK   70  A    between atoms: _167  and  _168
REMARK   71  A    between atoms: _177  and  _179
REMARK   72  A    between atoms: _179  and  _180
REMARK   73  A    between atoms: _179  and  _182
REMARK   74  A    between atoms: _182  and  _183
REMARK   75  A    between atoms: _189  and  _191
REMARK   76  A    between atoms: _191  and  _192
REMARK   77  A    between atoms: _191  and  _194
REMARK   78  A    between atoms: _197  and  _199
REMARK   79  A    between atoms: _199  and  _200
REMARK   80  A    between atoms: _199  and  _202
REMARK   81  A    between atoms: _202  and  _203
REMARK   82  A    between atoms: _206  and  _208
REMARK   83  A    between atoms: _208  and  _209
REMARK   84  A    between atoms: _211  and  _213
REMARK   85  A    between atoms: _213  and  _214
REMARK   86  A    between atoms: _216  and  _218
REMARK   87  A    between atoms: _218  and  _219
REMARK   88  A    between atoms: _218  and  _221
REMARK   89  A    between atoms: _221  and  _222
REMARK   90  A    between atoms: _225  and  _227
REMARK   91  A    between atoms: _227  and  _228
REMARK   92  A    between atoms: _227  and  _230
REMARK   93  A    between atoms: _230  and  _231
REMARK   94  A    between atoms: _237  and  _238
REMARK   95  A    between atoms: _243  and  _245
REMARK   96  A    between atoms: _245  and  _246
REMARK   97  A    between atoms: _245  and  _248
REMARK   98  A    between atoms: _248  and  _249
REMARK   99  A    between atoms: _251  and  _253
REMARK  100  A    between atoms: _253  and  _254
REMARK  101  A    between atoms: _253  and  _256
REMARK  102  A    between atoms: _256  and  _257
REMARK  103  A    between atoms: _260  and  _262
REMARK  104  A    between atoms: _262  and  _263
REMARK  105  A    between atoms: _262  and  _265
REMARK  106  A    between atoms: _265  and  _266
REMARK  107  A    between atoms: _272  and  _274
REMARK  108  A    between atoms: _274  and  _275
REMARK  109  A    between atoms: _274  and  _277
REMARK  110  A    between atoms: _277  and  _278
REMARK  111  A    between atoms: _283  and  _285
REMARK  112  A    between atoms: _285  and  _286
REMARK  113  A    between atoms: _285  and  _288
REMARK  114  A    between atoms: _288  and  _289
REMARK  115  A    between atoms: _295  and  _297
REMARK  116  A    between atoms: _297  and  _298
REMARK  117  A    between atoms: _297  and  _300
REMARK  118  A    between atoms: _300  and  _301
REMARK  119  A    between atoms: _304  and  _306
REMARK  120  A    between atoms: _306  and  _307
REMARK  121  A    between atoms: _306  and  _309
REMARK                            x       y       z     vdW  Elec       q    Type
REMARK                         _______ _______ _______ _____ _____    ______ ____
ROOT
ATOM      1  O   HOH     1      18.300   1.255  37.207  0.00  0.00    +0.000 OA
ENDROOT
TORSDOF 0
REMARK  Name = ../refined-set-2016/4bc5/4bc5_pocket.pdb
REMARK  121 active torsions:
REMARK  status: ('A' for Active; 'I' for Inactive)
REMARK    1  A    between atoms: _1  and  _3
REMARK    2  A    between atoms: _3  and  _4
REMARK    3  A    between atoms: _3  and  _6
REMARK    4  A    between atoms: _6  and  _7
REMARK    5  A    between atoms: _10  and  _12
REMARK    6  A    between atoms: _12  and  _13
REMARK    7  A    between atoms: _12  and  _15
REMARK    8  A    between atoms: _15  and  _16
REMARK    9  A    between atoms: _22  and  _24
REMARK   10  A    between atoms: _24  and  _25
REMARK   11  A    between atoms: _24  and  _27
REMARK   12  A    between atoms: _27  and  _28
REMARK   13  A    between atoms: _30  and  _32
REMARK   14  A    between atoms: _32  and  _33
REMARK   15  A    between atoms: _32  and  _35
REMARK   16  A    between atoms: _35  and  _36
REMARK   17  A    between atoms: _39  and  _41
REMARK   18  A    between atoms: _41  and  _42
REMARK   19  A    between atoms: _41  and  _44
REMARK   20  A    between atoms: _44  and  _45
REMARK   21  A    between atoms: _45  and  _46
REMARK   22  A    between atoms: _51  and  _53
REMARK   23  A    between atoms: _53  and  _54
REMARK   24  A    between atoms: _56  and  _58
REMARK   25  A    between atoms: _58  and  _59
REMARK   26  A    between atoms: _58  and  _61
REMARK   27  A    between atoms: _61  and  _62
REMARK   28  A    between atoms: _62  and  _63
REMARK   29  A    between atoms: _68  and  _70
REMARK   30  A    between atoms: _70  and  _71
REMARK   31  A    between atoms: _70  and  _73
REMARK   32  A    between atoms: _73  and  _74
REMARK   33  A    between atoms: _74  and  _75
REMARK   34  A    between atoms: _80  and  _82
REMARK   35  A    between atoms: _82  and  _83
REMARK   36  A    between atoms: _82  and  _85
REMARK   37  A    between atoms: _85  and  _86
REMARK   38  A    between atoms: _91  and  _93
REMARK   39  A    between atoms: _93  and  _94
REMARK   40  A    between atoms: _96  and  _98
REMARK   41  A    between atoms: _98  and  _99
REMARK   42  A    between atoms: _98  and  _101
REMARK   43  A    between atoms: _104  and  _106
REMARK   44  A    between atoms: _106  and  _107
REMARK   45  A    between atoms: _106  and  _109
REMARK   46  A    between atoms: _109  and  _110
REMARK   47  A    between atoms: _120  and  _122
REMARK   48  A    between atoms: _122  and  _123
REMARK   49  A    between atoms: _122  and  _125
REMARK   50  A    between atoms: _125  and  _126
REMARK   51  A    between atoms: _126  and  _127
REMARK   52  A    between atoms: _129  and  _131
REMARK   53  A    between atoms: _131  and  _132
REMARK   54  A    between atoms: _131  and  _134
REMARK   55  A    between atoms: _134  and  _135
REMARK   56  A    between atoms: _138  and  _140
REMARK   57  A    between atoms: _140  and  _141
REMARK   58  A    between atoms: _140  and  _143
REMARK   59  A    between atoms: _143  and  _144
REMARK   60  A    between atoms: _146  and  _148
REMARK   61  A    between atoms: _148  and  _149
REMARK   62  A    between atoms: _148  and  _151
REMARK   63  A    between atoms: _151  and  _152
REMARK   64  A    between atoms: _157  and  _158
REMARK   65  A    between atoms: _160  and  _162
REMARK   66  A    between atoms: _162  and  _163
REMARK   67  A    between atoms: _162  and  _165
REMARK   68  A    between atoms: _165  and  _166
REMARK   69  A    between atoms: _166  and  _167
REMARK   70  A    between atoms: _167  and  _168
REMARK   71  A    between atoms: _177  and  _179
REMARK   72  A    between atoms: _179  and  _180
REMARK   73  A    between atoms: _179  and  _182
REMARK   74  A    between atoms: _182  and  _183
REMARK   75  A    between atoms: _189  and  _191
REMARK   76  A    between atoms: _191  and  _192
REMARK   77  A    between atoms: _191  and  _194
REMARK   78  A    between atoms: _197  and  _199
REMARK   79  A    between atoms: _199  and  _200
REMARK   80  A    between atoms: _199  and  _202
REMARK   81  A    between atoms: _202  and  _203
REMARK   82  A    between atoms: _206  and  _208
REMARK   83  A    between atoms: _208  and  _209
REMARK   84  A    between atoms: _211  and  _213
REMARK   85  A    between atoms: _213  and  _214
REMARK   86  A    between atoms: _216  and  _218
REMARK   87  A    between atoms: _218  and  _219
REMARK   88  A    between atoms: _218  and  _221
REMARK   89  A    between atoms: _221  and  _222
REMARK   90  A    between atoms: _225  and  _227
REMARK   91  A    between atoms: _227  and  _228
REMARK   92  A    between atoms: _227  and  _230
REMARK   93  A    between atoms: _230  and  _231
REMARK   94  A    between atoms: _237  and  _238
REMARK   95  A    between atoms: _243  and  _245
REMARK   96  A    between atoms: _245  and  _246
REMARK   97  A    between atoms: _245  and  _248
REMARK   98  A    between atoms: _248  and  _249
REMARK   99  A    between atoms: _251  and  _253
REMARK  100  A    between atoms: _253  and  _254
REMARK  101  A    between atoms: _253  and  _256
REMARK  102  A    between atoms: _256  and  _257
REMARK  103  A    between atoms: _260  and  _262
REMARK  104  A    between atoms: _262  and  _263
REMARK  105  A    between atoms: _262  and  _265
REMARK  106  A    between atoms: _265  and  _266
REMARK  107  A    between atoms: _272  and  _274
REMARK  108  A    between atoms: _274  and  _275
REMARK  109  A    between atoms: _274  and  _277
REMARK  110  A    between atoms: _277  and  _278
REMARK  111  A    between atoms: _283  and  _285
REMARK  112  A    between atoms: _285  and  _286
REMARK  113  A    between atoms: _285  and  _288
REMARK  114  A    between atoms: _288  and  _289
REMARK  115  A    between atoms: _295  and  _297
REMARK  116  A    between atoms: _297  and  _298
REMARK  117  A    between atoms: _297  and  _300
REMARK  118  A    between atoms: _300  and  _301
REMARK  119  A    between atoms: _304  and  _306
REMARK  120  A    between atoms: _306  and  _307
REMARK  121  A    between atoms: _306  and  _309
REMARK                            x       y       z     vdW  Elec       q    Type
REMARK                         _______ _______ _______ _____ _____    ______ ____
ROOT
ATOM      1  O   HOH     1      16.800   3.215  35.933  0.00  0.00    +0.000 OA
ENDROOT
TORSDOF 0
REMARK  Name = ../refined-set-2016/4bc5/4bc5_pocket.pdb
REMARK  121 active torsions:
REMARK  status: ('A' for Active; 'I' for Inactive)
REMARK    1  A    between atoms: _1  and  _3
REMARK    2  A    between atoms: _3  and  _4
REMARK    3  A    between atoms: _3  and  _6
REMARK    4  A    between atoms: _6  and  _7
REMARK    5  A    between atoms: _10  and  _12
REMARK    6  A    between atoms: _12  and  _13
REMARK    7  A    between atoms: _12  and  _15
REMARK    8  A    between atoms: _15  and  _16
REMARK    9  A    between atoms: _22  and  _24
REMARK   10  A    between atoms: _24  and  _25
REMARK   11  A    between atoms: _24  and  _27
REMARK   12  A    between atoms: _27  and  _28
REMARK   13  A    between atoms: _30  and  _32
REMARK   14  A    between atoms: _32  and  _33
REMARK   15  A    between atoms: _32  and  _35
REMARK   16  A    between atoms: _35  and  _36
REMARK   17  A    between atoms: _39  and  _41
REMARK   18  A    between atoms: _41  and  _42
REMARK   19  A    between atoms: _41  and  _44
REMARK   20  A    between atoms: _44  and  _45
REMARK   21  A    between atoms: _45  and  _46
REMARK   22  A    between atoms: _51  and  _53
REMARK   23  A    between atoms: _53  and  _54
REMARK   24  A    between atoms: _56  and  _58
REMARK   25  A    between atoms: _58  and  _59
REMARK   26  A    between atoms: _58  and  _61
REMARK   27  A    between atoms: _61  and  _62
REMARK   28  A    between atoms: _62  and  _63
REMARK   29  A    between atoms: _68  and  _70
REMARK   30  A    between atoms: _70  and  _71
REMARK   31  A    between atoms: _70  and  _73
REMARK   32  A    between atoms: _73  and  _74
REMARK   33  A    between atoms: _74  and  _75
REMARK   34  A    between atoms: _80  and  _82
REMARK   35  A    between atoms: _82  and  _83
REMARK   36  A    between atoms: _82  and  _85
REMARK   37  A    between atoms: _85  and  _86
REMARK   38  A    between atoms: _91  and  _93
REMARK   39  A    between atoms: _93  and  _94
REMARK   40  A    between atoms: _96  and  _98
REMARK   41  A    between atoms: _98  and  _99
REMARK   42  A    between atoms: _98  and  _101
REMARK   43  A    between atoms: _104  and  _106
REMARK   44  A    between atoms: _106  and  _107
REMARK   45  A    between atoms: _106  and  _109
REMARK   46  A    between atoms: _109  and  _110
REMARK   47  A    between atoms: _120  and  _122
REMARK   48  A    between atoms: _122  and  _123
REMARK   49  A    between atoms: _122  and  _125
REMARK   50  A    between atoms: _125  and  _126
REMARK   51  A    between atoms: _126  and  _127
REMARK   52  A    between atoms: _129  and  _131
REMARK   53  A    between atoms: _131  and  _132
REMARK   54  A    between atoms: _131  and  _134
REMARK   55  A    between atoms: _134  and  _135
REMARK   56  A    between atoms: _138  and  _140
REMARK   57  A    between atoms: _140  and  _141
REMARK   58  A    between atoms: _140  and  _143
REMARK   59  A    between atoms: _143  and  _144
REMARK   60  A    between atoms: _146  and  _148
REMARK   61  A    between atoms: _148  and  _149
REMARK   62  A    between atoms: _148  and  _151
REMARK   63  A    between atoms: _151  and  _152
REMARK   64  A    between atoms: _157  and  _158
REMARK   65  A    between atoms: _160  and  _162
REMARK   66  A    between atoms: _162  and  _163
REMARK   67  A    between atoms: _162  and  _165
REMARK   68  A    between atoms: _165  and  _166
REMARK   69  A    between atoms: _166  and  _167
REMARK   70  A    between atoms: _167  and  _168
REMARK   71  A    between atoms: _177  and  _179
REMARK   72  A    between atoms: _179  and  _180
REMARK   73  A    between atoms: _179  and  _182
REMARK   74  A    between atoms: _182  and  _183
REMARK   75  A    between atoms: _189  and  _191
REMARK   76  A    between atoms: _191  and  _192
REMARK   77  A    between atoms: _191  and  _194
REMARK   78  A    between atoms: _197  and  _199
REMARK   79  A    between atoms: _199  and  _200
REMARK   80  A    between atoms: _199  and  _202
REMARK   81  A    between atoms: _202  and  _203
REMARK   82  A    between atoms: _206  and  _208
REMARK   83  A    between atoms: _208  and  _209
REMARK   84  A    between atoms: _211  and  _213
REMARK   85  A    between atoms: _213  and  _214
REMARK   86  A    between atoms: _216  and  _218
REMARK   87  A    between atoms: _218  and  _219
REMARK   88  A    between atoms: _218  and  _221
REMARK   89  A    between atoms: _221  and  _222
REMARK   90  A    between atoms: _225  and  _227
REMARK   91  A    between atoms: _227  and  _228
REMARK   92  A    between atoms: _227  and  _230
REMARK   93  A    between atoms: _230  and  _231
REMARK   94  A    between atoms: _237  and  _238
REMARK   95  A    between atoms: _243  and  _245
REMARK   96  A    between atoms: _245  and  _246
REMARK   97  A    between atoms: _245  and  _248
REMARK   98  A    between atoms: _248  and  _249
REMARK   99  A    between atoms: _251  and  _253
REMARK  100  A    between atoms: _253  and  _254
REMARK  101  A    between atoms: _253  and  _256
REMARK  102  A    between atoms: _256  and  _257
REMARK  103  A    between atoms: _260  and  _262
REMARK  104  A    between atoms: _262  and  _263
REMARK  105  A    between atoms: _262  and  _265
REMARK  106  A    between atoms: _265  and  _266
REMARK  107  A    between atoms: _272  and  _274
REMARK  108  A    between atoms: _274  and  _275
REMARK  109  A    between atoms: _274  and  _277
REMARK  110  A    between atoms: _277  and  _278
REMARK  111  A    between atoms: _283  and  _285
REMARK  112  A    between atoms: _285  and  _286
REMARK  113  A    between atoms: _285  and  _288
REMARK  114  A    between atoms: _288  and  _289
REMARK  115  A    between atoms: _295  and  _297
REMARK  116  A    between atoms: _297  and  _298
REMARK  117  A    between atoms: _297  and  _300
REMARK  118  A    between atoms: _300  and  _301
REMARK  119  A    between atoms: _304  and  _306
REMARK  120  A    between atoms: _306  and  _307
REMARK  121  A    between atoms: _306  and  _309
REMARK                            x       y       z     vdW  Elec       q    Type
REMARK                         _______ _______ _______ _____ _____    ______ ____
ROOT
ATOM      1  O   HOH     1      12.002   2.817  35.379  0.00  0.00    +0.000 OA
ENDROOT
TORSDOF 0
REMARK  Name = ../refined-set-2016/4bc5/4bc5_pocket.pdb
REMARK  121 active torsions:
REMARK  status: ('A' for Active; 'I' for Inactive)
REMARK    1  A    between atoms: _1  and  _3
REMARK    2  A    between atoms: _3  and  _4
REMARK    3  A    between atoms: _3  and  _6
REMARK    4  A    between atoms: _6  and  _7
REMARK    5  A    between atoms: _10  and  _12
REMARK    6  A    between atoms: _12  and  _13
REMARK    7  A    between atoms: _12  and  _15
REMARK    8  A    between atoms: _15  and  _16
REMARK    9  A    between atoms: _22  and  _24
REMARK   10  A    between atoms: _24  and  _25
REMARK   11  A    between atoms: _24  and  _27
REMARK   12  A    between atoms: _27  and  _28
REMARK   13  A    between atoms: _30  and  _32
REMARK   14  A    between atoms: _32  and  _33
REMARK   15  A    between atoms: _32  and  _35
REMARK   16  A    between atoms: _35  and  _36
REMARK   17  A    between atoms: _39  and  _41
REMARK   18  A    between atoms: _41  and  _42
REMARK   19  A    between atoms: _41  and  _44
REMARK   20  A    between atoms: _44  and  _45
REMARK   21  A    between atoms: _45  and  _46
REMARK   22  A    between atoms: _51  and  _53
REMARK   23  A    between atoms: _53  and  _54
REMARK   24  A    between atoms: _56  and  _58
REMARK   25  A    between atoms: _58  and  _59
REMARK   26  A    between atoms: _58  and  _61
REMARK   27  A    between atoms: _61  and  _62
REMARK   28  A    between atoms: _62  and  _63
REMARK   29  A    between atoms: _68  and  _70
REMARK   30  A    between atoms: _70  and  _71
REMARK   31  A    between atoms: _70  and  _73
REMARK   32  A    between atoms: _73  and  _74
REMARK   33  A    between atoms: _74  and  _75
REMARK   34  A    between atoms: _80  and  _82
REMARK   35  A    between atoms: _82  and  _83
REMARK   36  A    between atoms: _82  and  _85
REMARK   37  A    between atoms: _85  and  _86
REMARK   38  A    between atoms: _91  and  _93
REMARK   39  A    between atoms: _93  and  _94
REMARK   40  A    between atoms: _96  and  _98
REMARK   41  A    between atoms: _98  and  _99
REMARK   42  A    between atoms: _98  and  _101
REMARK   43  A    between atoms: _104  and  _106
REMARK   44  A    between atoms: _106  and  _107
REMARK   45  A    between atoms: _106  and  _109
REMARK   46  A    between atoms: _109  and  _110
REMARK   47  A    between atoms: _120  and  _122
REMARK   48  A    between atoms: _122  and  _123
REMARK   49  A    between atoms: _122  and  _125
REMARK   50  A    between atoms: _125  and  _126
REMARK   51  A    between atoms: _126  and  _127
REMARK   52  A    between atoms: _129  and  _131
REMARK   53  A    between atoms: _131  and  _132
REMARK   54  A    between atoms: _131  and  _134
REMARK   55  A    between atoms: _134  and  _135
REMARK   56  A    between atoms: _138  and  _140
REMARK   57  A    between atoms: _140  and  _141
REMARK   58  A    between atoms: _140  and  _143
REMARK   59  A    between atoms: _143  and  _144
REMARK   60  A    between atoms: _146  and  _148
REMARK   61  A    between atoms: _148  and  _149
REMARK   62  A    between atoms: _148  and  _151
REMARK   63  A    between atoms: _151  and  _152
REMARK   64  A    between atoms: _157  and  _158
REMARK   65  A    between atoms: _160  and  _162
REMARK   66  A    between atoms: _162  and  _163
REMARK   67  A    between atoms: _162  and  _165
REMARK   68  A    between atoms: _165  and  _166
REMARK   69  A    between atoms: _166  and  _167
REMARK   70  A    between atoms: _167  and  _168
REMARK   71  A    between atoms: _177  and  _179
REMARK   72  A    between atoms: _179  and  _180
REMARK   73  A    between atoms: _179  and  _182
REMARK   74  A    between atoms: _182  and  _183
REMARK   75  A    between atoms: _189  and  _191
REMARK   76  A    between atoms: _191  and  _192
REMARK   77  A    between atoms: _191  and  _194
REMARK   78  A    between atoms: _197  and  _199
REMARK   79  A    between atoms: _199  and  _200
REMARK   80  A    between atoms: _199  and  _202
REMARK   81  A    between atoms: _202  and  _203
REMARK   82  A    between atoms: _206  and  _208
REMARK   83  A    between atoms: _208  and  _209
REMARK   84  A    between atoms: _211  and  _213
REMARK   85  A    between atoms: _213  and  _214
REMARK   86  A    between atoms: _216  and  _218
REMARK   87  A    between atoms: _218  and  _219
REMARK   88  A    between atoms: _218  and  _221
REMARK   89  A    between atoms: _221  and  _222
REMARK   90  A    between atoms: _225  and  _227
REMARK   91  A    between atoms: _227  and  _228
REMARK   92  A    between atoms: _227  and  _230
REMARK   93  A    between atoms: _230  and  _231
REMARK   94  A    between atoms: _237  and  _238
REMARK   95  A    between atoms: _243  and  _245
REMARK   96  A    between atoms: _245  and  _246
REMARK   97  A    between atoms: _245  and  _248
REMARK   98  A    between atoms: _248  and  _249
REMARK   99  A    between atoms: _251  and  _253
REMARK  100  A    between atoms: _253  and  _254
REMARK  101  A    between atoms: _253  and  _256
REMARK  102  A    between atoms: _256  and  _257
REMARK  103  A    between atoms: _260  and  _262
REMARK  104  A    between atoms: _262  and  _263
REMARK  105  A    between atoms: _262  and  _265
REMARK  106  A    between atoms: _265  and  _266
REMARK  107  A    between atoms: _272  and  _274
REMARK  108  A    between atoms: _274  and  _275
REMARK  109  A    between atoms: _274  and  _277
REMARK  110  A    between atoms: _277  and  _278
REMARK  111  A    between atoms: _283  and  _285
REMARK  112  A    between atoms: _285  and  _286
REMARK  113  A    between atoms: _285  and  _288
REMARK  114  A    between atoms: _288  and  _289
REMARK  115  A    between atoms: _295  and  _297
REMARK  116  A    between atoms: _297  and  _298
REMARK  117  A    between atoms: _297  and  _300
REMARK  118  A    between atoms: _300  and  _301
REMARK  119  A    between atoms: _304  and  _306
REMARK  120  A    between atoms: _306  and  _307
REMARK  121  A    between atoms: _306  and  _309
REMARK                            x       y       z     vdW  Elec       q    Type
REMARK                         _______ _______ _______ _____ _____    ______ ____
ROOT
ATOM      1  O   HOH     1      11.806  -6.419  24.263  0.00  0.00    +0.000 OA
ENDROOT
TORSDOF 0
REMARK  Name = ../refined-set-2016/4bc5/4bc5_pocket.pdb
REMARK  121 active torsions:
REMARK  status: ('A' for Active; 'I' for Inactive)
REMARK    1  A    between atoms: _1  and  _3
REMARK    2  A    between atoms: _3  and  _4
REMARK    3  A    between atoms: _3  and  _6
REMARK    4  A    between atoms: _6  and  _7
REMARK    5  A    between atoms: _10  and  _12
REMARK    6  A    between atoms: _12  and  _13
REMARK    7  A    between atoms: _12  and  _15
REMARK    8  A    between atoms: _15  and  _16
REMARK    9  A    between atoms: _22  and  _24
REMARK   10  A    between atoms: _24  and  _25
REMARK   11  A    between atoms: _24  and  _27
REMARK   12  A    between atoms: _27  and  _28
REMARK   13  A    between atoms: _30  and  _32
REMARK   14  A    between atoms: _32  and  _33
REMARK   15  A    between atoms: _32  and  _35
REMARK   16  A    between atoms: _35  and  _36
REMARK   17  A    between atoms: _39  and  _41
REMARK   18  A    between atoms: _41  and  _42
REMARK   19  A    between atoms: _41  and  _44
REMARK   20  A    between atoms: _44  and  _45
REMARK   21  A    between atoms: _45  and  _46
REMARK   22  A    between atoms: _51  and  _53
REMARK   23  A    between atoms: _53  and  _54
REMARK   24  A    between atoms: _56  and  _58
REMARK   25  A    between atoms: _58  and  _59
REMARK   26  A    between atoms: _58  and  _61
REMARK   27  A    between atoms: _61  and  _62
REMARK   28  A    between atoms: _62  and  _63
REMARK   29  A    between atoms: _68  and  _70
REMARK   30  A    between atoms: _70  and  _71
REMARK   31  A    between atoms: _70  and  _73
REMARK   32  A    between atoms: _73  and  _74
REMARK   33  A    between atoms: _74  and  _75
REMARK   34  A    between atoms: _80  and  _82
REMARK   35  A    between atoms: _82  and  _83
REMARK   36  A    between atoms: _82  and  _85
REMARK   37  A    between atoms: _85  and  _86
REMARK   38  A    between atoms: _91  and  _93
REMARK   39  A    between atoms: _93  and  _94
REMARK   40  A    between atoms: _96  and  _98
REMARK   41  A    between atoms: _98  and  _99
REMARK   42  A    between atoms: _98  and  _101
REMARK   43  A    between atoms: _104  and  _106
REMARK   44  A    between atoms: _106  and  _107
REMARK   45  A    between atoms: _106  and  _109
REMARK   46  A    between atoms: _109  and  _110
REMARK   47  A    between atoms: _120  and  _122
REMARK   48  A    between atoms: _122  and  _123
REMARK   49  A    between atoms: _122  and  _125
REMARK   50  A    between atoms: _125  and  _126
REMARK   51  A    between atoms: _126  and  _127
REMARK   52  A    between atoms: _129  and  _131
REMARK   53  A    between atoms: _131  and  _132
REMARK   54  A    between atoms: _131  and  _134
REMARK   55  A    between atoms: _134  and  _135
REMARK   56  A    between atoms: _138  and  _140
REMARK   57  A    between atoms: _140  and  _141
REMARK   58  A    between atoms: _140  and  _143
REMARK   59  A    between atoms: _143  and  _144
REMARK   60  A    between atoms: _146  and  _148
REMARK   61  A    between atoms: _148  and  _149
REMARK   62  A    between atoms: _148  and  _151
REMARK   63  A    between atoms: _151  and  _152
REMARK   64  A    between atoms: _157  and  _158
REMARK   65  A    between atoms: _160  and  _162
REMARK   66  A    between atoms: _162  and  _163
REMARK   67  A    between atoms: _162  and  _165
REMARK   68  A    between atoms: _165  and  _166
REMARK   69  A    between atoms: _166  and  _167
REMARK   70  A    between atoms: _167  and  _168
REMARK   71  A    between atoms: _177  and  _179
REMARK   72  A    between atoms: _179  and  _180
REMARK   73  A    between atoms: _179  and  _182
REMARK   74  A    between atoms: _182  and  _183
REMARK   75  A    between atoms: _189  and  _191
REMARK   76  A    between atoms: _191  and  _192
REMARK   77  A    between atoms: _191  and  _194
REMARK   78  A    between atoms: _197  and  _199
REMARK   79  A    between atoms: _199  and  _200
REMARK   80  A    between atoms: _199  and  _202
REMARK   81  A    between atoms: _202  and  _203
REMARK   82  A    between atoms: _206  and  _208
REMARK   83  A    between atoms: _208  and  _209
REMARK   84  A    between atoms: _211  and  _213
REMARK   85  A    between atoms: _213  and  _214
REMARK   86  A    between atoms: _216  and  _218
REMARK   87  A    between atoms: _218  and  _219
REMARK   88  A    between atoms: _218  and  _221
REMARK   89  A    between atoms: _221  and  _222
REMARK   90  A    between atoms: _225  and  _227
REMARK   91  A    between atoms: _227  and  _228
REMARK   92  A    between atoms: _227  and  _230
REMARK   93  A    between atoms: _230  and  _231
REMARK   94  A    between atoms: _237  and  _238
REMARK   95  A    between atoms: _243  and  _245
REMARK   96  A    between atoms: _245  and  _246
REMARK   97  A    between atoms: _245  and  _248
REMARK   98  A    between atoms: _248  and  _249
REMARK   99  A    between atoms: _251  and  _253
REMARK  100  A    between atoms: _253  and  _254
REMARK  101  A    between atoms: _253  and  _256
REMARK  102  A    between atoms: _256  and  _257
REMARK  103  A    between atoms: _260  and  _262
REMARK  104  A    between atoms: _262  and  _263
REMARK  105  A    between atoms: _262  and  _265
REMARK  106  A    between atoms: _265  and  _266
REMARK  107  A    between atoms: _272  and  _274
REMARK  108  A    between atoms: _274  and  _275
REMARK  109  A    between atoms: _274  and  _277
REMARK  110  A    between atoms: _277  and  _278
REMARK  111  A    between atoms: _283  and  _285
REMARK  112  A    between atoms: _285  and  _286
REMARK  113  A    between atoms: _285  and  _288
REMARK  114  A    between atoms: _288  and  _289
REMARK  115  A    between atoms: _295  and  _297
REMARK  116  A    between atoms: _297  and  _298
REMARK  117  A    between atoms: _297  and  _300
REMARK  118  A    between atoms: _300  and  _301
REMARK  119  A    between atoms: _304  and  _306
REMARK  120  A    between atoms: _306  and  _307
REMARK  121  A    between atoms: _306  and  _309
REMARK                            x       y       z     vdW  Elec       q    Type
REMARK                         _______ _______ _______ _____ _____    ______ ____
ROOT
ATOM      1  O   HOH     1      10.046   2.506  34.055  0.00  0.00    +0.000 OA
ENDROOT
TORSDOF 0
