REMARK  Name = ../refined-set-2016/2pwr/2pwr_pocket.pdb
REMARK  237 active torsions:
REMARK  status: ('A' for Active; 'I' for Inactive)
REMARK    1  A    between atoms: _1  and  _3
REMARK    2  A    between atoms: _3  and  _4
REMARK    3  A    between atoms: _3  and  _6
REMARK    4  A    between atoms: _6  and  _7
REMARK    5  A    between atoms: _7  and  _8
REMARK    6  A    between atoms: _8  and  _9
REMARK    7  A    between atoms: _18  and  _20
REMARK    8  A    between atoms: _20  and  _21
REMARK    9  A    between atoms: _20  and  _23
REMARK   10  A    between atoms: _23  and  _24
REMARK   11  A    between atoms: _27  and  _29
REMARK   12  A    between atoms: _29  and  _30
REMARK   13  A    between atoms: _29  and  _32
REMARK   14  A    between atoms: _32  and  _33
REMARK   15  A    between atoms: _36  and  _38
REMARK   16  A    between atoms: _38  and  _39
REMARK   17  A    between atoms: _38  and  _41
REMARK   18  A    between atoms: _41  and  _42
REMARK   19  A    between atoms: _45  and  _47
REMARK   20  A    between atoms: _47  and  _48
REMARK   21  A    between atoms: _47  and  _50
REMARK   22  A    between atoms: _50  and  _51
REMARK   23  A    between atoms: _54  and  _56
REMARK   24  A    between atoms: _56  and  _57
REMARK   25  A    between atoms: _59  and  _61
REMARK   26  A    between atoms: _61  and  _62
REMARK   27  A    between atoms: _65  and  _67
REMARK   28  A    between atoms: _67  and  _68
REMARK   29  A    between atoms: _67  and  _70
REMARK   30  A    between atoms: _70  and  _71
REMARK   31  A    between atoms: _74  and  _76
REMARK   32  A    between atoms: _76  and  _77
REMARK   33  A    between atoms: _76  and  _79
REMARK   34  A    between atoms: _79  and  _80
REMARK   35  A    between atoms: _83  and  _85
REMARK   36  A    between atoms: _85  and  _86
REMARK   37  A    between atoms: _85  and  _88
REMARK   38  A    between atoms: _88  and  _89
REMARK   39  A    between atoms: _92  and  _94
REMARK   40  A    between atoms: _94  and  _95
REMARK   41  A    between atoms: _94  and  _97
REMARK   42  A    between atoms: _100  and  _102
REMARK   43  A    between atoms: _102  and  _103
REMARK   44  A    between atoms: _102  and  _105
REMARK   45  A    between atoms: _105  and  _106
REMARK   46  A    between atoms: _106  and  _107
REMARK   47  A    between atoms: _107  and  _108
REMARK   48  A    between atoms: _108  and  _109
REMARK   49  A    between atoms: _113  and  _115
REMARK   50  A    between atoms: _115  and  _116
REMARK   51  A    between atoms: _115  and  _118
REMARK   52  A    between atoms: _118  and  _119
REMARK   53  A    between atoms: _119  and  _120
REMARK   54  A    between atoms: _122  and  _124
REMARK   55  A    between atoms: _124  and  _125
REMARK   56  A    between atoms: _124  and  _127
REMARK   57  A    between atoms: _127  and  _128
REMARK   58  A    between atoms: _131  and  _133
REMARK   59  A    between atoms: _133  and  _134
REMARK   60  A    between atoms: _136  and  _138
REMARK   61  A    between atoms: _138  and  _139
REMARK   62  A    between atoms: _141  and  _143
REMARK   63  A    between atoms: _143  and  _144
REMARK   64  A    between atoms: _143  and  _146
REMARK   65  A    between atoms: _146  and  _147
REMARK   66  A    between atoms: _150  and  _152
REMARK   67  A    between atoms: _152  and  _153
REMARK   68  A    between atoms: _155  and  _157
REMARK   69  A    between atoms: _157  and  _158
REMARK   70  A    between atoms: _160  and  _162
REMARK   71  A    between atoms: _162  and  _163
REMARK   72  A    between atoms: _162  and  _165
REMARK   73  A    between atoms: _165  and  _166
REMARK   74  A    between atoms: _172  and  _174
REMARK   75  A    between atoms: _174  and  _175
REMARK   76  A    between atoms: _174  and  _177
REMARK   77  A    between atoms: _177  and  _178
REMARK   78  A    between atoms: _181  and  _183
REMARK   79  A    between atoms: _183  and  _184
REMARK   80  A    between atoms: _183  and  _186
REMARK   81  A    between atoms: _189  and  _191
REMARK   82  A    between atoms: _191  and  _192
REMARK   83  A    between atoms: _191  and  _194
REMARK   84  A    between atoms: _194  and  _195
REMARK   85  A    between atoms: _198  and  _200
REMARK   86  A    between atoms: _200  and  _201
REMARK   87  A    between atoms: _200  and  _203
REMARK   88  A    between atoms: _203  and  _204
REMARK   89  A    between atoms: _208  and  _209
REMARK   90  A    between atoms: _214  and  _216
REMARK   91  A    between atoms: _216  and  _217
REMARK   92  A    between atoms: _216  and  _219
REMARK   93  A    between atoms: _222  and  _224
REMARK   94  A    between atoms: _224  and  _225
REMARK   95  A    between atoms: _224  and  _227
REMARK   96  A    between atoms: _227  and  _228
REMARK   97  A    between atoms: _233  and  _235
REMARK   98  A    between atoms: _235  and  _236
REMARK   99  A    between atoms: _235  and  _238
REMARK  100  A    between atoms: _238  and  _239
REMARK  101  A    between atoms: _242  and  _244
REMARK  102  A    between atoms: _244  and  _245
REMARK  103  A    between atoms: _244  and  _247
REMARK  104  A    between atoms: _247  and  _248
REMARK  105  A    between atoms: _251  and  _253
REMARK  106  A    between atoms: _253  and  _254
REMARK  107  A    between atoms: _256  and  _258
REMARK  108  A    between atoms: _258  and  _259
REMARK  109  A    between atoms: _258  and  _261
REMARK  110  A    between atoms: _261  and  _262
REMARK  111  A    between atoms: _262  and  _263
REMARK  112  A    between atoms: _263  and  _264
REMARK  113  A    between atoms: _273  and  _275
REMARK  114  A    between atoms: _275  and  _276
REMARK  115  A    between atoms: _275  and  _278
REMARK  116  A    between atoms: _278  and  _279
REMARK  117  A    between atoms: _284  and  _286
REMARK  118  A    between atoms: _286  and  _287
REMARK  119  A    between atoms: _286  and  _289
REMARK  120  A    between atoms: _289  and  _290
REMARK  121  A    between atoms: _290  and  _291
REMARK  122  A    between atoms: _291  and  _292
REMARK  123  A    between atoms: _301  and  _303
REMARK  124  A    between atoms: _303  and  _304
REMARK  125  A    between atoms: _303  and  _306
REMARK  126  A    between atoms: _306  and  _307
REMARK  127  A    between atoms: _310  and  _312
REMARK  128  A    between atoms: _312  and  _313
REMARK  129  A    between atoms: _312  and  _315
REMARK  130  A    between atoms: _315  and  _316
REMARK  131  A    between atoms: _319  and  _321
REMARK  132  A    between atoms: _321  and  _322
REMARK  133  A    between atoms: _321  and  _324
REMARK  134  A    between atoms: _324  and  _325
REMARK  135  A    between atoms: _328  and  _330
REMARK  136  A    between atoms: _330  and  _331
REMARK  137  A    between atoms: _330  and  _333
REMARK  138  A    between atoms: _333  and  _334
REMARK  139  A    between atoms: _337  and  _339
REMARK  140  A    between atoms: _339  and  _340
REMARK  141  A    between atoms: _339  and  _342
REMARK  142  A    between atoms: _342  and  _343
REMARK  143  A    between atoms: _346  and  _348
REMARK  144  A    between atoms: _348  and  _349
REMARK  145  A    between atoms: _351  and  _353
REMARK  146  A    between atoms: _353  and  _354
REMARK  147  A    between atoms: _357  and  _359
REMARK  148  A    between atoms: _359  and  _360
REMARK  149  A    between atoms: _359  and  _362
REMARK  150  A    between atoms: _362  and  _363
REMARK  151  A    between atoms: _366  and  _368
REMARK  152  A    between atoms: _368  and  _369
REMARK  153  A    between atoms: _368  and  _371
REMARK  154  A    between atoms: _371  and  _372
REMARK  155  A    between atoms: _375  and  _377
REMARK  156  A    between atoms: _377  and  _378
REMARK  157  A    between atoms: _377  and  _380
REMARK  158  A    between atoms: _380  and  _381
REMARK  159  A    between atoms: _384  and  _386
REMARK  160  A    between atoms: _386  and  _387
REMARK  161  A    between atoms: _386  and  _389
REMARK  162  A    between atoms: _392  and  _394
REMARK  163  A    between atoms: _394  and  _395
REMARK  164  A    between atoms: _394  and  _397
REMARK  165  A    between atoms: _397  and  _398
REMARK  166  A    between atoms: _398  and  _399
REMARK  167  A    between atoms: _399  and  _400
REMARK  168  A    between atoms: _400  and  _401
REMARK  169  A    between atoms: _405  and  _407
REMARK  170  A    between atoms: _407  and  _408
REMARK  171  A    between atoms: _407  and  _410
REMARK  172  A    between atoms: _410  and  _411
REMARK  173  A    between atoms: _411  and  _412
REMARK  174  A    between atoms: _414  and  _416
REMARK  175  A    between atoms: _416  and  _417
REMARK  176  A    between atoms: _416  and  _419
REMARK  177  A    between atoms: _419  and  _420
REMARK  178  A    between atoms: _423  and  _425
REMARK  179  A    between atoms: _425  and  _426
REMARK  180  A    between atoms: _428  and  _430
REMARK  181  A    between atoms: _430  and  _431
REMARK  182  A    between atoms: _433  and  _435
REMARK  183  A    between atoms: _435  and  _436
REMARK  184  A    between atoms: _435  and  _438
REMARK  185  A    between atoms: _438  and  _439
REMARK  186  A    between atoms: _442  and  _444
REMARK  187  A    between atoms: _444  and  _445
REMARK  188  A    between atoms: _447  and  _449
REMARK  189  A    between atoms: _449  and  _450
REMARK  190  A    between atoms: _452  and  _454
REMARK  191  A    between atoms: _454  and  _455
REMARK  192  A    between atoms: _454  and  _457
REMARK  193  A    between atoms: _457  and  _458
REMARK  194  A    between atoms: _464  and  _466
REMARK  195  A    between atoms: _466  and  _467
REMARK  196  A    between atoms: _466  and  _469
REMARK  197  A    between atoms: _469  and  _470
REMARK  198  A    between atoms: _473  and  _475
REMARK  199  A    between atoms: _475  and  _476
REMARK  200  A    between atoms: _475  and  _478
REMARK  201  A    between atoms: _481  and  _483
REMARK  202  A    between atoms: _483  and  _484
REMARK  203  A    between atoms: _483  and  _486
REMARK  204  A    between atoms: _486  and  _487
REMARK  205  A    between atoms: _491  and  _492
REMARK  206  A    between atoms: _497  and  _499
REMARK  207  A    between atoms: _499  and  _500
REMARK  208  A    between atoms: _499  and  _502
REMARK  209  A    between atoms: _502  and  _503
REMARK  210  A    between atoms: _507  and  _508
REMARK  211  A    between atoms: _513  and  _515
REMARK  212  A    between atoms: _515  and  _516
REMARK  213  A    between atoms: _515  and  _518
REMARK  214  A    between atoms: _521  and  _523
REMARK  215  A    between atoms: _523  and  _524
REMARK  216  A    between atoms: _523  and  _526
REMARK  217  A    between atoms: _526  and  _527
REMARK  218  A    between atoms: _532  and  _534
REMARK  219  A    between atoms: _534  and  _535
REMARK  220  A    between atoms: _534  and  _537
REMARK  221  A    between atoms: _537  and  _538
REMARK  222  A    between atoms: _541  and  _543
REMARK  223  A    between atoms: _543  and  _544
REMARK  224  A    between atoms: _543  and  _546
REMARK  225  A    between atoms: _546  and  _547
REMARK  226  A    between atoms: _550  and  _552
REMARK  227  A    between atoms: _552  and  _553
REMARK  228  A    between atoms: _555  and  _557
REMARK  229  A    between atoms: _557  and  _558
REMARK  230  A    between atoms: _557  and  _560
REMARK  231  A    between atoms: _560  and  _561
REMARK  232  A    between atoms: _561  and  _562
REMARK  233  A    between atoms: _562  and  _563
REMARK  234  A    between atoms: _572  and  _574
REMARK  235  A    between atoms: _574  and  _575
REMARK  236  A    between atoms: _574  and  _577
REMARK  237  A    between atoms: _577  and  _578
REMARK                            x       y       z     vdW  Elec       q    Type
REMARK                         _______ _______ _______ _____ _____    ______ ____
ROOT
ATOM      1  NE  ARG A   1      21.724 -21.864 -15.505  0.00  0.00    -0.265 N 
ATOM      2  CZ  ARG A   1      20.872 -22.517 -14.714  0.00  0.00    +0.342 C 
ATOM      3  NH2 ARG A   1      20.783 -22.319 -13.401  0.00  0.00    -0.292 N 
ATOM      4 HH21 ARG A   1      20.097 -22.861 -12.839  0.00  0.00    +0.255 HD
ATOM      5 HH22 ARG A   1      21.400 -21.622 -12.937  0.00  0.00    +0.255 HD
ATOM      6  NH1 ARG A   1      20.082 -23.401 -15.299  0.00  0.00    -0.292 N 
ATOM      7 HH11 ARG A   1      19.397 -23.941 -14.733  0.00  0.00    +0.255 HD
ATOM      8 HH12 ARG A   1      20.146 -23.556 -16.325  0.00  0.00    +0.255 HD
ATOM      9  HE  ARG A   1      21.714 -22.089 -16.520  0.00  0.00    +0.259 HD
ENDROOT
BRANCH   1  10
ATOM     10  CD  ARG A   1      22.670 -20.854 -15.041  0.00  0.00    +0.174 C 
BRANCH  10  11
ATOM     11  CG  ARG A   1      23.416 -20.214 -16.197  0.00  0.00    +0.045 C 
BRANCH  11  12
ATOM     12  CB  ARG A   1      24.093 -18.938 -15.777  0.00  0.00    +0.029 C 
BRANCH  12  13
ATOM     13  CA  ARG A   1      24.675 -18.177 -16.953  0.00  0.00    +0.133 C 
BRANCH  13  14
ATOM     14  N   ARG A   1      25.873 -18.858 -17.430  0.00  0.00    -0.239 NA
ATOM     15  H   ARG A   1      26.201 -19.743 -16.994  0.00  0.00    +0.142 HD
ENDBRANCH  13  14
BRANCH  13  16
ATOM     16  C   ARG A   1      25.049 -16.790 -16.464  0.00  0.00    +0.224 C 
ATOM     17  O   ARG A   1      26.042 -16.630 -15.763  0.00  0.00    -0.287 OA
ENDBRANCH  13  16
ENDBRANCH  12  13
ENDBRANCH  11  12
ENDBRANCH  10  11
ENDBRANCH   1  10
TORSDOF 6
REMARK  Name = ../refined-set-2016/2pwr/2pwr_pocket.pdb
REMARK  237 active torsions:
REMARK  status: ('A' for Active; 'I' for Inactive)
REMARK    1  A    between atoms: _1  and  _3
REMARK    2  A    between atoms: _3  and  _4
REMARK    3  A    between atoms: _3  and  _6
REMARK    4  A    between atoms: _6  and  _7
REMARK    5  A    between atoms: _7  and  _8
REMARK    6  A    between atoms: _8  and  _9
REMARK    7  A    between atoms: _18  and  _20
REMARK    8  A    between atoms: _20  and  _21
REMARK    9  A    between atoms: _20  and  _23
REMARK   10  A    between atoms: _23  and  _24
REMARK   11  A    between atoms: _27  and  _29
REMARK   12  A    between atoms: _29  and  _30
REMARK   13  A    between atoms: _29  and  _32
REMARK   14  A    between atoms: _32  and  _33
REMARK   15  A    between atoms: _36  and  _38
REMARK   16  A    between atoms: _38  and  _39
REMARK   17  A    between atoms: _38  and  _41
REMARK   18  A    between atoms: _41  and  _42
REMARK   19  A    between atoms: _45  and  _47
REMARK   20  A    between atoms: _47  and  _48
REMARK   21  A    between atoms: _47  and  _50
REMARK   22  A    between atoms: _50  and  _51
REMARK   23  A    between atoms: _54  and  _56
REMARK   24  A    between atoms: _56  and  _57
REMARK   25  A    between atoms: _59  and  _61
REMARK   26  A    between atoms: _61  and  _62
REMARK   27  A    between atoms: _65  and  _67
REMARK   28  A    between atoms: _67  and  _68
REMARK   29  A    between atoms: _67  and  _70
REMARK   30  A    between atoms: _70  and  _71
REMARK   31  A    between atoms: _74  and  _76
REMARK   32  A    between atoms: _76  and  _77
REMARK   33  A    between atoms: _76  and  _79
REMARK   34  A    between atoms: _79  and  _80
REMARK   35  A    between atoms: _83  and  _85
REMARK   36  A    between atoms: _85  and  _86
REMARK   37  A    between atoms: _85  and  _88
REMARK   38  A    between atoms: _88  and  _89
REMARK   39  A    between atoms: _92  and  _94
REMARK   40  A    between atoms: _94  and  _95
REMARK   41  A    between atoms: _94  and  _97
REMARK   42  A    between atoms: _100  and  _102
REMARK   43  A    between atoms: _102  and  _103
REMARK   44  A    between atoms: _102  and  _105
REMARK   45  A    between atoms: _105  and  _106
REMARK   46  A    between atoms: _106  and  _107
REMARK   47  A    between atoms: _107  and  _108
REMARK   48  A    between atoms: _108  and  _109
REMARK   49  A    between atoms: _113  and  _115
REMARK   50  A    between atoms: _115  and  _116
REMARK   51  A    between atoms: _115  and  _118
REMARK   52  A    between atoms: _118  and  _119
REMARK   53  A    between atoms: _119  and  _120
REMARK   54  A    between atoms: _122  and  _124
REMARK   55  A    between atoms: _124  and  _125
REMARK   56  A    between atoms: _124  and  _127
REMARK   57  A    between atoms: _127  and  _128
REMARK   58  A    between atoms: _131  and  _133
REMARK   59  A    between atoms: _133  and  _134
REMARK   60  A    between atoms: _136  and  _138
REMARK   61  A    between atoms: _138  and  _139
REMARK   62  A    between atoms: _141  and  _143
REMARK   63  A    between atoms: _143  and  _144
REMARK   64  A    between atoms: _143  and  _146
REMARK   65  A    between atoms: _146  and  _147
REMARK   66  A    between atoms: _150  and  _152
REMARK   67  A    between atoms: _152  and  _153
REMARK   68  A    between atoms: _155  and  _157
REMARK   69  A    between atoms: _157  and  _158
REMARK   70  A    between atoms: _160  and  _162
REMARK   71  A    between atoms: _162  and  _163
REMARK   72  A    between atoms: _162  and  _165
REMARK   73  A    between atoms: _165  and  _166
REMARK   74  A    between atoms: _172  and  _174
REMARK   75  A    between atoms: _174  and  _175
REMARK   76  A    between atoms: _174  and  _177
REMARK   77  A    between atoms: _177  and  _178
REMARK   78  A    between atoms: _181  and  _183
REMARK   79  A    between atoms: _183  and  _184
REMARK   80  A    between atoms: _183  and  _186
REMARK   81  A    between atoms: _189  and  _191
REMARK   82  A    between atoms: _191  and  _192
REMARK   83  A    between atoms: _191  and  _194
REMARK   84  A    between atoms: _194  and  _195
REMARK   85  A    between atoms: _198  and  _200
REMARK   86  A    between atoms: _200  and  _201
REMARK   87  A    between atoms: _200  and  _203
REMARK   88  A    between atoms: _203  and  _204
REMARK   89  A    between atoms: _208  and  _209
REMARK   90  A    between atoms: _214  and  _216
REMARK   91  A    between atoms: _216  and  _217
REMARK   92  A    between atoms: _216  and  _219
REMARK   93  A    between atoms: _222  and  _224
REMARK   94  A    between atoms: _224  and  _225
REMARK   95  A    between atoms: _224  and  _227
REMARK   96  A    between atoms: _227  and  _228
REMARK   97  A    between atoms: _233  and  _235
REMARK   98  A    between atoms: _235  and  _236
REMARK   99  A    between atoms: _235  and  _238
REMARK  100  A    between atoms: _238  and  _239
REMARK  101  A    between atoms: _242  and  _244
REMARK  102  A    between atoms: _244  and  _245
REMARK  103  A    between atoms: _244  and  _247
REMARK  104  A    between atoms: _247  and  _248
REMARK  105  A    between atoms: _251  and  _253
REMARK  106  A    between atoms: _253  and  _254
REMARK  107  A    between atoms: _256  and  _258
REMARK  108  A    between atoms: _258  and  _259
REMARK  109  A    between atoms: _258  and  _261
REMARK  110  A    between atoms: _261  and  _262
REMARK  111  A    between atoms: _262  and  _263
REMARK  112  A    between atoms: _263  and  _264
REMARK  113  A    between atoms: _273  and  _275
REMARK  114  A    between atoms: _275  and  _276
REMARK  115  A    between atoms: _275  and  _278
REMARK  116  A    between atoms: _278  and  _279
REMARK  117  A    between atoms: _284  and  _286
REMARK  118  A    between atoms: _286  and  _287
REMARK  119  A    between atoms: _286  and  _289
REMARK  120  A    between atoms: _289  and  _290
REMARK  121  A    between atoms: _290  and  _291
REMARK  122  A    between atoms: _291  and  _292
REMARK  123  A    between atoms: _301  and  _303
REMARK  124  A    between atoms: _303  and  _304
REMARK  125  A    between atoms: _303  and  _306
REMARK  126  A    between atoms: _306  and  _307
REMARK  127  A    between atoms: _310  and  _312
REMARK  128  A    between atoms: _312  and  _313
REMARK  129  A    between atoms: _312  and  _315
REMARK  130  A    between atoms: _315  and  _316
REMARK  131  A    between atoms: _319  and  _321
REMARK  132  A    between atoms: _321  and  _322
REMARK  133  A    between atoms: _321  and  _324
REMARK  134  A    between atoms: _324  and  _325
REMARK  135  A    between atoms: _328  and  _330
REMARK  136  A    between atoms: _330  and  _331
REMARK  137  A    between atoms: _330  and  _333
REMARK  138  A    between atoms: _333  and  _334
REMARK  139  A    between atoms: _337  and  _339
REMARK  140  A    between atoms: _339  and  _340
REMARK  141  A    between atoms: _339  and  _342
REMARK  142  A    between atoms: _342  and  _343
REMARK  143  A    between atoms: _346  and  _348
REMARK  144  A    between atoms: _348  and  _349
REMARK  145  A    between atoms: _351  and  _353
REMARK  146  A    between atoms: _353  and  _354
REMARK  147  A    between atoms: _357  and  _359
REMARK  148  A    between atoms: _359  and  _360
REMARK  149  A    between atoms: _359  and  _362
REMARK  150  A    between atoms: _362  and  _363
REMARK  151  A    between atoms: _366  and  _368
REMARK  152  A    between atoms: _368  and  _369
REMARK  153  A    between atoms: _368  and  _371
REMARK  154  A    between atoms: _371  and  _372
REMARK  155  A    between atoms: _375  and  _377
REMARK  156  A    between atoms: _377  and  _378
REMARK  157  A    between atoms: _377  and  _380
REMARK  158  A    between atoms: _380  and  _381
REMARK  159  A    between atoms: _384  and  _386
REMARK  160  A    between atoms: _386  and  _387
REMARK  161  A    between atoms: _386  and  _389
REMARK  162  A    between atoms: _392  and  _394
REMARK  163  A    between atoms: _394  and  _395
REMARK  164  A    between atoms: _394  and  _397
REMARK  165  A    between atoms: _397  and  _398
REMARK  166  A    between atoms: _398  and  _399
REMARK  167  A    between atoms: _399  and  _400
REMARK  168  A    between atoms: _400  and  _401
REMARK  169  A    between atoms: _405  and  _407
REMARK  170  A    between atoms: _407  and  _408
REMARK  171  A    between atoms: _407  and  _410
REMARK  172  A    between atoms: _410  and  _411
REMARK  173  A    between atoms: _411  and  _412
REMARK  174  A    between atoms: _414  and  _416
REMARK  175  A    between atoms: _416  and  _417
REMARK  176  A    between atoms: _416  and  _419
REMARK  177  A    between atoms: _419  and  _420
REMARK  178  A    between atoms: _423  and  _425
REMARK  179  A    between atoms: _425  and  _426
REMARK  180  A    between atoms: _428  and  _430
REMARK  181  A    between atoms: _430  and  _431
REMARK  182  A    between atoms: _433  and  _435
REMARK  183  A    between atoms: _435  and  _436
REMARK  184  A    between atoms: _435  and  _438
REMARK  185  A    between atoms: _438  and  _439
REMARK  186  A    between atoms: _442  and  _444
REMARK  187  A    between atoms: _444  and  _445
REMARK  188  A    between atoms: _447  and  _449
REMARK  189  A    between atoms: _449  and  _450
REMARK  190  A    between atoms: _452  and  _454
REMARK  191  A    between atoms: _454  and  _455
REMARK  192  A    between atoms: _454  and  _457
REMARK  193  A    between atoms: _457  and  _458
REMARK  194  A    between atoms: _464  and  _466
REMARK  195  A    between atoms: _466  and  _467
REMARK  196  A    between atoms: _466  and  _469
REMARK  197  A    between atoms: _469  and  _470
REMARK  198  A    between atoms: _473  and  _475
REMARK  199  A    between atoms: _475  and  _476
REMARK  200  A    between atoms: _475  and  _478
REMARK  201  A    between atoms: _481  and  _483
REMARK  202  A    between atoms: _483  and  _484
REMARK  203  A    between atoms: _483  and  _486
REMARK  204  A    between atoms: _486  and  _487
REMARK  205  A    between atoms: _491  and  _492
REMARK  206  A    between atoms: _497  and  _499
REMARK  207  A    between atoms: _499  and  _500
REMARK  208  A    between atoms: _499  and  _502
REMARK  209  A    between atoms: _502  and  _503
REMARK  210  A    between atoms: _507  and  _508
REMARK  211  A    between atoms: _513  and  _515
REMARK  212  A    between atoms: _515  and  _516
REMARK  213  A    between atoms: _515  and  _518
REMARK  214  A    between atoms: _521  and  _523
REMARK  215  A    between atoms: _523  and  _524
REMARK  216  A    between atoms: _523  and  _526
REMARK  217  A    between atoms: _526  and  _527
REMARK  218  A    between atoms: _532  and  _534
REMARK  219  A    between atoms: _534  and  _535
REMARK  220  A    between atoms: _534  and  _537
REMARK  221  A    between atoms: _537  and  _538
REMARK  222  A    between atoms: _541  and  _543
REMARK  223  A    between atoms: _543  and  _544
REMARK  224  A    between atoms: _543  and  _546
REMARK  225  A    between atoms: _546  and  _547
REMARK  226  A    between atoms: _550  and  _552
REMARK  227  A    between atoms: _552  and  _553
REMARK  228  A    between atoms: _555  and  _557
REMARK  229  A    between atoms: _557  and  _558
REMARK  230  A    between atoms: _557  and  _560
REMARK  231  A    between atoms: _560  and  _561
REMARK  232  A    between atoms: _561  and  _562
REMARK  233  A    between atoms: _562  and  _563
REMARK  234  A    between atoms: _572  and  _574
REMARK  235  A    between atoms: _574  and  _575
REMARK  236  A    between atoms: _574  and  _577
REMARK  237  A    between atoms: _577  and  _578
REMARK                            x       y       z     vdW  Elec       q    Type
REMARK                         _______ _______ _______ _____ _____    ______ ____
ROOT
ATOM      1  C   GLY A   5      11.617 -14.489 -19.515  0.00  0.00    +0.243 C 
ATOM      2  N   ALA A   6      12.052 -13.965 -18.383  0.00  0.00    -0.297 N 
ATOM      3  H   ALA A   6      13.049 -13.681 -18.301  0.00  0.00    +0.150 HD
ATOM      4  O   GLY A   5      10.445 -14.837 -19.705  0.00  0.00    -0.273 OA
ENDROOT
BRANCH   2   5
ATOM      5  CA  ALA A   6      11.157 -13.779 -17.248  0.00  0.00    +0.149 C 
ATOM      6  CB  ALA A   6      11.988 -13.913 -15.972  0.00  0.00    +0.031 C 
BRANCH   5   7
ATOM      7  C   ALA A   6      10.500 -12.420 -17.251  0.00  0.00    +0.241 C 
ATOM      8  O   ALA A   6      11.206 -11.411 -17.204  0.00  0.00    -0.273 OA
ATOM      9  N   ASP A   7       9.167 -12.355 -17.288  0.00  0.00    -0.297 N 
ATOM     10  H   ASP A   7       8.588 -13.218 -17.330  0.00  0.00    +0.150 HD
BRANCH   9  11
ATOM     11  CA  ASP A   7       8.548 -11.034 -17.268  0.00  0.00    +0.160 C 
BRANCH  11  12
ATOM     12  C   ASP A   7       8.870 -10.267 -15.982  0.00  0.00    +0.241 C 
ATOM     13  N   ASP A   8       8.840 -11.003 -14.874  0.00  0.00    -0.297 N 
ATOM     14  H   ASP A   8       8.652 -12.023 -14.948  0.00  0.00    +0.150 HD
ATOM     15  O   ASP A   7       9.115  -9.077 -15.987  0.00  0.00    -0.273 OA
BRANCH  13  16
ATOM     16  CA  ASP A   8       9.059 -10.427 -13.584  0.00  0.00    +0.160 C 
BRANCH  16  17
ATOM     17  C   ASP A   8      10.142 -11.210 -12.850  0.00  0.00    +0.241 C 
ATOM     18  N   THR A   9      10.703 -10.500 -11.894  0.00  0.00    -0.295 N 
ATOM     19  H   THR A   9      10.384  -9.516 -11.784  0.00  0.00    +0.150 HD
ATOM     20  O   ASP A   8      10.493 -12.349 -13.134  0.00  0.00    -0.273 OA
BRANCH  18  21
ATOM     21  CA  THR A   9      11.724 -10.968 -10.984  0.00  0.00    +0.176 C 
BRANCH  21  22
ATOM     22  C   THR A   9      11.144 -11.955  -9.981  0.00  0.00    +0.243 C 
ATOM     23  O   THR A   9      10.036 -11.682  -9.496  0.00  0.00    -0.273 OA
ATOM     24  N   VAL A  10      11.839 -13.050  -9.734  0.00  0.00    -0.298 N 
ATOM     25  H   VAL A  10      12.773 -13.167 -10.176  0.00  0.00    +0.150 HD
BRANCH  24  26
ATOM     26  CA  VAL A  10      11.338 -14.091  -8.866  0.00  0.00    +0.137 C 
BRANCH  26  27
ATOM     27  CB  VAL A  10      10.809 -15.312  -9.641  0.00  0.00    +0.026 C 
ATOM     28  CG2 VAL A  10      10.093 -16.225  -8.648  0.00  0.00    +0.002 C 
ATOM     29  CG1 VAL A  10       9.942 -14.898 -10.809  0.00  0.00    +0.002 C 
ENDBRANCH  26  27
BRANCH  26  30
ATOM     30  C   VAL A  10      12.481 -14.561  -7.974  0.00  0.00    +0.227 C 
ATOM     31  O   VAL A  10      13.487 -14.990  -8.498  0.00  0.00    -0.286 OA
ENDBRANCH  26  30
ENDBRANCH  24  26
ENDBRANCH  21  22
BRANCH  21  32
ATOM     32  CB  THR A   9      12.255  -9.719 -10.259  0.00  0.00    +0.137 C 
ATOM     33  CG2 THR A   9      13.198 -10.086  -9.150  0.00  0.00    +0.034 C 
BRANCH  32  34
ATOM     34  OG1 THR A   9      12.945  -8.937 -11.251  0.00  0.00    -0.382 OA
ATOM     35  HG1 THR A   9      12.313  -8.688 -11.971  0.00  0.00    +0.210 HD
ENDBRANCH  32  34
ENDBRANCH  21  32
ENDBRANCH  18  21
ENDBRANCH  16  17
BRANCH  16  36
ATOM     36  CB  ASP A   8       7.777 -10.468 -12.755  0.00  0.00    +0.143 C 
BRANCH  36  37
ATOM     37  CG  ASP A   8       6.837  -9.316 -13.043  0.00  0.00    +0.367 C 
ATOM     38  OD2 ASP A   8       7.333  -8.189 -13.144  0.00  0.00    -0.246 OA
ATOM     39  OD1 ASP A   8       5.618  -9.590 -13.164  0.00  0.00    -0.246 OA
ENDBRANCH  36  37
ENDBRANCH  16  36
ENDBRANCH  13  16
ENDBRANCH  11  12
BRANCH  11  40
ATOM     40  CB  ASP A   7       7.047 -11.163 -17.439  0.00  0.00    +0.143 C 
BRANCH  40  41
ATOM     41  CG  ASP A   7       6.585 -11.800 -18.726  0.00  0.00    +0.367 C 
ATOM     42  OD2 ASP A   7       5.484 -12.412 -18.695  0.00  0.00    -0.246 OA
ATOM     43  OD1 ASP A   7       7.316 -11.714 -19.730  0.00  0.00    -0.246 OA
ENDBRANCH  40  41
ENDBRANCH  11  40
ENDBRANCH   9  11
ENDBRANCH   5   7
ENDBRANCH   2   5
BRANCH   1  44
ATOM     44  CA  GLY A   5      12.627 -14.655 -20.627  0.00  0.00    +0.176 C 
BRANCH  44  46
ATOM     45  C   THR A   4      13.916 -12.595 -20.704  0.00  0.00    +0.243 C 
ATOM     46  N   GLY A   5      13.820 -13.872 -20.388  0.00  0.00    -0.295 N 
ATOM     47  H   GLY A   5      14.639 -14.337 -19.947  0.00  0.00    +0.150 HD
ATOM     48  O   THR A   4      13.038 -11.977 -21.307  0.00  0.00    -0.273 OA
BRANCH  45  49
ATOM     49  CA  THR A   4      15.198 -11.865 -20.325  0.00  0.00    +0.176 C 
BRANCH  49  52
ATOM     50  C   ASP A   3      15.746 -12.674 -18.125  0.00  0.00    +0.241 C 
ATOM     51  O   ASP A   3      14.732 -12.197 -17.627  0.00  0.00    -0.273 OA
ATOM     52  N   THR A   4      16.056 -12.616 -19.423  0.00  0.00    -0.295 N 
ATOM     53  H   THR A   4      16.901 -13.102 -19.784  0.00  0.00    +0.150 HD
BRANCH  50  54
ATOM     54  CA  ASP A   3      16.713 -13.480 -17.281  0.00  0.00    +0.160 C 
BRANCH  54  56
ATOM     55  C   LEU A   2      18.902 -12.701 -16.600  0.00  0.00    +0.241 C 
ATOM     56  N   ASP A   3      17.589 -12.602 -16.518  0.00  0.00    -0.297 N 
ATOM     57  H   ASP A   3      17.171 -11.882 -15.895  0.00  0.00    +0.150 HD
ATOM     58  O   LEU A   2      19.528 -13.352 -17.433  0.00  0.00    -0.273 OA
BRANCH  55  59
ATOM     59  CA  LEU A   2      19.635 -11.958 -15.488  0.00  0.00    +0.149 C 
BRANCH  59  62
ATOM     60  C   LEU A   1      19.534 -13.641 -13.739  0.00  0.00    +0.238 C 
ATOM     61  O   LEU A   1      18.353 -13.345 -13.524  0.00  0.00    -0.274 OA
ATOM     62  N   LEU A   2      20.247 -12.962 -14.623  0.00  0.00    -0.297 N 
ATOM     63  H   LEU A   2      21.267 -13.148 -14.703  0.00  0.00    +0.150 HD
BRANCH  60  64
ATOM     64  CA  LEU A   1      20.172 -14.781 -12.977  0.00  0.00    +0.145 C 
BRANCH  64  65
ATOM     65  N   LEU A   1      19.960 -14.598 -11.548  0.00  0.00    -0.238 NA
ATOM     66  H   LEU A   1      19.072 -14.945 -11.133  0.00  0.00    +0.142 HD
ENDBRANCH  64  65
BRANCH  64  67
ATOM     67  CB  LEU A   1      19.575 -16.120 -13.326  0.00  0.00    +0.026 C 
BRANCH  67  68
ATOM     68  CG  LEU A   1      19.616 -16.630 -14.748  0.00  0.00    +0.002 C 
ATOM     69  CD2 LEU A   1      18.967 -17.998 -14.824  0.00  0.00    +0.000 C 
ATOM     70  CD1 LEU A   1      21.052 -16.701 -15.236  0.00  0.00    +0.000 C 
ENDBRANCH  67  68
ENDBRANCH  64  67
ENDBRANCH  60  64
ENDBRANCH  59  62
BRANCH  59  71
ATOM     71  CB  LEU A   2      20.633 -10.988 -16.083  0.00  0.00    +0.029 C 
BRANCH  71  72
ATOM     72  CG  LEU A   2      21.559 -10.314 -15.076  0.00  0.00    +0.002 C 
ATOM     73  CD2 LEU A   2      20.745  -9.590 -14.027  0.00  0.00    +0.000 C 
ATOM     74  CD1 LEU A   2      22.517  -9.371 -15.760  0.00  0.00    +0.000 C 
ENDBRANCH  71  72
ENDBRANCH  59  71
ENDBRANCH  55  59
ENDBRANCH  54  56
BRANCH  54  75
ATOM     75  CB  ASP A   3      16.005 -14.423 -16.307  0.00  0.00    +0.143 C 
BRANCH  75  76
ATOM     76  CG  ASP A   3      15.303 -15.515 -17.061  0.00  0.00    +0.367 C 
ATOM     77  OD2 ASP A   3      15.166 -16.628 -16.502  0.00  0.00    -0.246 OA
ATOM     78  OD1 ASP A   3      14.887 -15.301 -18.229  0.00  0.00    -0.246 OA
ENDBRANCH  75  76
ENDBRANCH  54  75
ENDBRANCH  50  54
ENDBRANCH  49  52
BRANCH  49  79
ATOM     79  CB  THR A   4      15.945 -11.543 -21.628  0.00  0.00    +0.137 C 
ATOM     80  CG2 THR A   4      17.172 -10.720 -21.322  0.00  0.00    +0.034 C 
BRANCH  79  81
ATOM     81  OG1 THR A   4      16.409 -12.740 -22.237  0.00  0.00    -0.382 OA
ATOM     82  HG1 THR A   4      15.637 -13.325 -22.442  0.00  0.00    +0.210 HD
ENDBRANCH  79  81
ENDBRANCH  49  79
ENDBRANCH  45  49
ENDBRANCH  44  46
ENDBRANCH   1  44
TORSDOF 35
REMARK  Name = ../refined-set-2016/2pwr/2pwr_pocket.pdb
REMARK  237 active torsions:
REMARK  status: ('A' for Active; 'I' for Inactive)
REMARK    1  A    between atoms: _1  and  _3
REMARK    2  A    between atoms: _3  and  _4
REMARK    3  A    between atoms: _3  and  _6
REMARK    4  A    between atoms: _6  and  _7
REMARK    5  A    between atoms: _7  and  _8
REMARK    6  A    between atoms: _8  and  _9
REMARK    7  A    between atoms: _18  and  _20
REMARK    8  A    between atoms: _20  and  _21
REMARK    9  A    between atoms: _20  and  _23
REMARK   10  A    between atoms: _23  and  _24
REMARK   11  A    between atoms: _27  and  _29
REMARK   12  A    between atoms: _29  and  _30
REMARK   13  A    between atoms: _29  and  _32
REMARK   14  A    between atoms: _32  and  _33
REMARK   15  A    between atoms: _36  and  _38
REMARK   16  A    between atoms: _38  and  _39
REMARK   17  A    between atoms: _38  and  _41
REMARK   18  A    between atoms: _41  and  _42
REMARK   19  A    between atoms: _45  and  _47
REMARK   20  A    between atoms: _47  and  _48
REMARK   21  A    between atoms: _47  and  _50
REMARK   22  A    between atoms: _50  and  _51
REMARK   23  A    between atoms: _54  and  _56
REMARK   24  A    between atoms: _56  and  _57
REMARK   25  A    between atoms: _59  and  _61
REMARK   26  A    between atoms: _61  and  _62
REMARK   27  A    between atoms: _65  and  _67
REMARK   28  A    between atoms: _67  and  _68
REMARK   29  A    between atoms: _67  and  _70
REMARK   30  A    between atoms: _70  and  _71
REMARK   31  A    between atoms: _74  and  _76
REMARK   32  A    between atoms: _76  and  _77
REMARK   33  A    between atoms: _76  and  _79
REMARK   34  A    between atoms: _79  and  _80
REMARK   35  A    between atoms: _83  and  _85
REMARK   36  A    between atoms: _85  and  _86
REMARK   37  A    between atoms: _85  and  _88
REMARK   38  A    between atoms: _88  and  _89
REMARK   39  A    between atoms: _92  and  _94
REMARK   40  A    between atoms: _94  and  _95
REMARK   41  A    between atoms: _94  and  _97
REMARK   42  A    between atoms: _100  and  _102
REMARK   43  A    between atoms: _102  and  _103
REMARK   44  A    between atoms: _102  and  _105
REMARK   45  A    between atoms: _105  and  _106
REMARK   46  A    between atoms: _106  and  _107
REMARK   47  A    between atoms: _107  and  _108
REMARK   48  A    between atoms: _108  and  _109
REMARK   49  A    between atoms: _113  and  _115
REMARK   50  A    between atoms: _115  and  _116
REMARK   51  A    between atoms: _115  and  _118
REMARK   52  A    between atoms: _118  and  _119
REMARK   53  A    between atoms: _119  and  _120
REMARK   54  A    between atoms: _122  and  _124
REMARK   55  A    between atoms: _124  and  _125
REMARK   56  A    between atoms: _124  and  _127
REMARK   57  A    between atoms: _127  and  _128
REMARK   58  A    between atoms: _131  and  _133
REMARK   59  A    between atoms: _133  and  _134
REMARK   60  A    between atoms: _136  and  _138
REMARK   61  A    between atoms: _138  and  _139
REMARK   62  A    between atoms: _141  and  _143
REMARK   63  A    between atoms: _143  and  _144
REMARK   64  A    between atoms: _143  and  _146
REMARK   65  A    between atoms: _146  and  _147
REMARK   66  A    between atoms: _150  and  _152
REMARK   67  A    between atoms: _152  and  _153
REMARK   68  A    between atoms: _155  and  _157
REMARK   69  A    between atoms: _157  and  _158
REMARK   70  A    between atoms: _160  and  _162
REMARK   71  A    between atoms: _162  and  _163
REMARK   72  A    between atoms: _162  and  _165
REMARK   73  A    between atoms: _165  and  _166
REMARK   74  A    between atoms: _172  and  _174
REMARK   75  A    between atoms: _174  and  _175
REMARK   76  A    between atoms: _174  and  _177
REMARK   77  A    between atoms: _177  and  _178
REMARK   78  A    between atoms: _181  and  _183
REMARK   79  A    between atoms: _183  and  _184
REMARK   80  A    between atoms: _183  and  _186
REMARK   81  A    between atoms: _189  and  _191
REMARK   82  A    between atoms: _191  and  _192
REMARK   83  A    between atoms: _191  and  _194
REMARK   84  A    between atoms: _194  and  _195
REMARK   85  A    between atoms: _198  and  _200
REMARK   86  A    between atoms: _200  and  _201
REMARK   87  A    between atoms: _200  and  _203
REMARK   88  A    between atoms: _203  and  _204
REMARK   89  A    between atoms: _208  and  _209
REMARK   90  A    between atoms: _214  and  _216
REMARK   91  A    between atoms: _216  and  _217
REMARK   92  A    between atoms: _216  and  _219
REMARK   93  A    between atoms: _222  and  _224
REMARK   94  A    between atoms: _224  and  _225
REMARK   95  A    between atoms: _224  and  _227
REMARK   96  A    between atoms: _227  and  _228
REMARK   97  A    between atoms: _233  and  _235
REMARK   98  A    between atoms: _235  and  _236
REMARK   99  A    between atoms: _235  and  _238
REMARK  100  A    between atoms: _238  and  _239
REMARK  101  A    between atoms: _242  and  _244
REMARK  102  A    between atoms: _244  and  _245
REMARK  103  A    between atoms: _244  and  _247
REMARK  104  A    between atoms: _247  and  _248
REMARK  105  A    between atoms: _251  and  _253
REMARK  106  A    between atoms: _253  and  _254
REMARK  107  A    between atoms: _256  and  _258
REMARK  108  A    between atoms: _258  and  _259
REMARK  109  A    between atoms: _258  and  _261
REMARK  110  A    between atoms: _261  and  _262
REMARK  111  A    between atoms: _262  and  _263
REMARK  112  A    between atoms: _263  and  _264
REMARK  113  A    between atoms: _273  and  _275
REMARK  114  A    between atoms: _275  and  _276
REMARK  115  A    between atoms: _275  and  _278
REMARK  116  A    between atoms: _278  and  _279
REMARK  117  A    between atoms: _284  and  _286
REMARK  118  A    between atoms: _286  and  _287
REMARK  119  A    between atoms: _286  and  _289
REMARK  120  A    between atoms: _289  and  _290
REMARK  121  A    between atoms: _290  and  _291
REMARK  122  A    between atoms: _291  and  _292
REMARK  123  A    between atoms: _301  and  _303
REMARK  124  A    between atoms: _303  and  _304
REMARK  125  A    between atoms: _303  and  _306
REMARK  126  A    between atoms: _306  and  _307
REMARK  127  A    between atoms: _310  and  _312
REMARK  128  A    between atoms: _312  and  _313
REMARK  129  A    between atoms: _312  and  _315
REMARK  130  A    between atoms: _315  and  _316
REMARK  131  A    between atoms: _319  and  _321
REMARK  132  A    between atoms: _321  and  _322
REMARK  133  A    between atoms: _321  and  _324
REMARK  134  A    between atoms: _324  and  _325
REMARK  135  A    between atoms: _328  and  _330
REMARK  136  A    between atoms: _330  and  _331
REMARK  137  A    between atoms: _330  and  _333
REMARK  138  A    between atoms: _333  and  _334
REMARK  139  A    between atoms: _337  and  _339
REMARK  140  A    between atoms: _339  and  _340
REMARK  141  A    between atoms: _339  and  _342
REMARK  142  A    between atoms: _342  and  _343
REMARK  143  A    between atoms: _346  and  _348
REMARK  144  A    between atoms: _348  and  _349
REMARK  145  A    between atoms: _351  and  _353
REMARK  146  A    between atoms: _353  and  _354
REMARK  147  A    between atoms: _357  and  _359
REMARK  148  A    between atoms: _359  and  _360
REMARK  149  A    between atoms: _359  and  _362
REMARK  150  A    between atoms: _362  and  _363
REMARK  151  A    between atoms: _366  and  _368
REMARK  152  A    between atoms: _368  and  _369
REMARK  153  A    between atoms: _368  and  _371
REMARK  154  A    between atoms: _371  and  _372
REMARK  155  A    between atoms: _375  and  _377
REMARK  156  A    between atoms: _377  and  _378
REMARK  157  A    between atoms: _377  and  _380
REMARK  158  A    between atoms: _380  and  _381
REMARK  159  A    between atoms: _384  and  _386
REMARK  160  A    between atoms: _386  and  _387
REMARK  161  A    between atoms: _386  and  _389
REMARK  162  A    between atoms: _392  and  _394
REMARK  163  A    between atoms: _394  and  _395
REMARK  164  A    between atoms: _394  and  _397
REMARK  165  A    between atoms: _397  and  _398
REMARK  166  A    between atoms: _398  and  _399
REMARK  167  A    between atoms: _399  and  _400
REMARK  168  A    between atoms: _400  and  _401
REMARK  169  A    between atoms: _405  and  _407
REMARK  170  A    between atoms: _407  and  _408
REMARK  171  A    between atoms: _407  and  _410
REMARK  172  A    between atoms: _410  and  _411
REMARK  173  A    between atoms: _411  and  _412
REMARK  174  A    between atoms: _414  and  _416
REMARK  175  A    between atoms: _416  and  _417
REMARK  176  A    between atoms: _416  and  _419
REMARK  177  A    between atoms: _419  and  _420
REMARK  178  A    between atoms: _423  and  _425
REMARK  179  A    between atoms: _425  and  _426
REMARK  180  A    between atoms: _428  and  _430
REMARK  181  A    between atoms: _430  and  _431
REMARK  182  A    between atoms: _433  and  _435
REMARK  183  A    between atoms: _435  and  _436
REMARK  184  A    between atoms: _435  and  _438
REMARK  185  A    between atoms: _438  and  _439
REMARK  186  A    between atoms: _442  and  _444
REMARK  187  A    between atoms: _444  and  _445
REMARK  188  A    between atoms: _447  and  _449
REMARK  189  A    between atoms: _449  and  _450
REMARK  190  A    between atoms: _452  and  _454
REMARK  191  A    between atoms: _454  and  _455
REMARK  192  A    between atoms: _454  and  _457
REMARK  193  A    between atoms: _457  and  _458
REMARK  194  A    between atoms: _464  and  _466
REMARK  195  A    between atoms: _466  and  _467
REMARK  196  A    between atoms: _466  and  _469
REMARK  197  A    between atoms: _469  and  _470
REMARK  198  A    between atoms: _473  and  _475
REMARK  199  A    between atoms: _475  and  _476
REMARK  200  A    between atoms: _475  and  _478
REMARK  201  A    between atoms: _481  and  _483
REMARK  202  A    between atoms: _483  and  _484
REMARK  203  A    between atoms: _483  and  _486
REMARK  204  A    between atoms: _486  and  _487
REMARK  205  A    between atoms: _491  and  _492
REMARK  206  A    between atoms: _497  and  _499
REMARK  207  A    between atoms: _499  and  _500
REMARK  208  A    between atoms: _499  and  _502
REMARK  209  A    between atoms: _502  and  _503
REMARK  210  A    between atoms: _507  and  _508
REMARK  211  A    between atoms: _513  and  _515
REMARK  212  A    between atoms: _515  and  _516
REMARK  213  A    between atoms: _515  and  _518
REMARK  214  A    between atoms: _521  and  _523
REMARK  215  A    between atoms: _523  and  _524
REMARK  216  A    between atoms: _523  and  _526
REMARK  217  A    between atoms: _526  and  _527
REMARK  218  A    between atoms: _532  and  _534
REMARK  219  A    between atoms: _534  and  _535
REMARK  220  A    between atoms: _534  and  _537
REMARK  221  A    between atoms: _537  and  _538
REMARK  222  A    between atoms: _541  and  _543
REMARK  223  A    between atoms: _543  and  _544
REMARK  224  A    between atoms: _543  and  _546
REMARK  225  A    between atoms: _546  and  _547
REMARK  226  A    between atoms: _550  and  _552
REMARK  227  A    between atoms: _552  and  _553
REMARK  228  A    between atoms: _555  and  _557
REMARK  229  A    between atoms: _557  and  _558
REMARK  230  A    between atoms: _557  and  _560
REMARK  231  A    between atoms: _560  and  _561
REMARK  232  A    between atoms: _561  and  _562
REMARK  233  A    between atoms: _562  and  _563
REMARK  234  A    between atoms: _572  and  _574
REMARK  235  A    between atoms: _574  and  _575
REMARK  236  A    between atoms: _574  and  _577
REMARK  237  A    between atoms: _577  and  _578
REMARK                            x       y       z     vdW  Elec       q    Type
REMARK                         _______ _______ _______ _____ _____    ______ ____
ROOT
ATOM      1  C   GLY A   5       7.085 -24.017 -17.392  0.00  0.00    +0.243 C 
ATOM      2  O   GLY A   5       6.231 -24.742 -16.898  0.00  0.00    -0.273 OA
ATOM      3  N   ILE A   6       8.201 -24.439 -17.943  0.00  0.00    -0.297 N 
ATOM      4  H   ILE A   6       8.877 -23.757 -18.341  0.00  0.00    +0.150 HD
ENDROOT
BRANCH   3   5
ATOM      5  CA  ILE A   6       8.484 -25.854 -17.993  0.00  0.00    +0.149 C 
BRANCH   5   6
ATOM      6  C   ILE A   6       8.425 -26.421 -16.584  0.00  0.00    +0.241 C 
ATOM      7  O   ILE A   6       9.014 -25.830 -15.664  0.00  0.00    -0.273 OA
ATOM      8  N   GLY A   7       7.687 -27.506 -16.481  0.00  0.00    -0.295 N 
ATOM      9  H   GLY A   7       7.189 -27.844 -17.329  0.00  0.00    +0.150 HD
BRANCH   8  10
ATOM     10  CA  GLY A   7       7.531 -28.253 -15.254  0.00  0.00    +0.176 C 
BRANCH  10  11
ATOM     11  C   GLY A   7       6.325 -27.796 -14.472  0.00  0.00    +0.243 C 
ATOM     12  O   GLY A   7       5.966 -28.343 -13.440  0.00  0.00    -0.273 OA
ATOM     13  N   GLY A   8       5.675 -26.722 -14.913  0.00  0.00    -0.295 N 
ATOM     14  H   GLY A   8       6.001 -26.186 -15.743  0.00  0.00    +0.150 HD
BRANCH  13  15
ATOM     15  CA  GLY A   8       4.488 -26.339 -14.175  0.00  0.00    +0.176 C 
BRANCH  15  16
ATOM     16  C   GLY A   8       4.597 -24.995 -13.491  0.00  0.00    +0.243 C 
ATOM     17  N   PHE A   9       3.643 -24.808 -12.587  0.00  0.00    -0.297 N 
ATOM     18  H   PHE A   9       3.027 -25.612 -12.350  0.00  0.00    +0.150 HD
ATOM     19  O   GLY A   8       5.464 -24.178 -13.800  0.00  0.00    -0.273 OA
BRANCH  17  20
ATOM     20  CA  PHE A   9       3.411 -23.548 -11.912  0.00  0.00    +0.153 C 
BRANCH  20  21
ATOM     21  C   PHE A   9       3.723 -23.633 -10.435  0.00  0.00    +0.241 C 
ATOM     22  O   PHE A   9       3.559 -24.668  -9.798  0.00  0.00    -0.273 OA
ATOM     23  N   ILE A  10       4.128 -22.483  -9.942  0.00  0.00    -0.298 N 
ATOM     24  H   ILE A  10       4.318 -21.688 -10.585  0.00  0.00    +0.150 HD
BRANCH  23  25
ATOM     25  CA  ILE A  10       4.312 -22.310  -8.520  0.00  0.00    +0.137 C 
BRANCH  25  26
ATOM     26  C   ILE A  10       3.538 -21.090  -8.048  0.00  0.00    +0.227 C 
ATOM     27  O   ILE A  10       3.296 -20.165  -8.811  0.00  0.00    -0.286 OA
ENDBRANCH  25  26
BRANCH  25  28
ATOM     28  CB  ILE A  10       5.797 -22.165  -8.129  0.00  0.00    +0.026 C 
ATOM     29  CG2 ILE A  10       6.531 -23.448  -8.500  0.00  0.00    +0.002 C 
BRANCH  28  30
ATOM     30  CG1 ILE A  10       6.498 -20.938  -8.694  0.00  0.00    +0.002 C 
ATOM     31  CD1 ILE A  10       7.775 -20.525  -7.978  0.00  0.00    +0.000 C 
ENDBRANCH  28  30
ENDBRANCH  25  28
ENDBRANCH  23  25
ENDBRANCH  20  21
BRANCH  20  32
ATOM     32  CB  PHE A   9       1.949 -23.143 -12.085  0.00  0.00    +0.055 C 
BRANCH  32  33
ATOM     33  CG  PHE A   9       1.694 -22.551 -13.447  0.00  0.00    -0.020 A 
ATOM     34  CD2 PHE A   9       1.491 -21.211 -13.622  0.00  0.00    -0.004 A 
ATOM     35  CE2 PHE A   9       1.262 -20.638 -14.852  0.00  0.00    -0.000 A 
ATOM     36  CZ  PHE A   9       1.241 -21.493 -15.936  0.00  0.00    -0.000 A 
ATOM     37  CE1 PHE A   9       1.469 -22.832 -15.769  0.00  0.00    -0.000 A 
ATOM     38  CD1 PHE A   9       1.687 -23.402 -14.534  0.00  0.00    -0.004 A 
ENDBRANCH  32  33
ENDBRANCH  20  32
ENDBRANCH  17  20
ENDBRANCH  15  16
ENDBRANCH  13  15
ENDBRANCH  10  11
ENDBRANCH   8  10
ENDBRANCH   5   6
BRANCH   5  39
ATOM     39  CB  ILE A   6       9.861 -26.031 -18.649  0.00  0.00    +0.027 C 
ATOM     40  CG2 ILE A   6      10.503 -27.343 -18.319  0.00  0.00    +0.002 C 
BRANCH  39  41
ATOM     41  CG1 ILE A   6       9.712 -25.784 -20.156  0.00  0.00    +0.002 C 
ATOM     42  CD1 ILE A   6      10.993 -25.745 -20.934  0.00  0.00    +0.000 C 
ENDBRANCH  39  41
ENDBRANCH   5  39
ENDBRANCH   3   5
BRANCH   1  43
ATOM     43  CA  GLY A   5       6.815 -22.520 -17.403  0.00  0.00    +0.176 C 
BRANCH  43  45
ATOM     44  C   GLY A   4       5.682 -21.133 -15.825  0.00  0.00    +0.243 C 
ATOM     45  N   GLY A   5       5.965 -22.363 -16.216  0.00  0.00    -0.295 N 
ATOM     46  H   GLY A   5       5.599 -23.190 -15.702  0.00  0.00    +0.150 HD
ATOM     47  O   GLY A   4       5.993 -20.137 -16.446  0.00  0.00    -0.273 OA
BRANCH  44  48
ATOM     48  CA  GLY A   4       4.889 -21.146 -14.533  0.00  0.00    +0.176 C 
BRANCH  48  51
ATOM     49  C   ILE A   3       4.273 -19.644 -12.831  0.00  0.00    +0.241 C 
ATOM     50  O   ILE A   3       4.365 -20.549 -12.022  0.00  0.00    -0.273 OA
ATOM     51  N   GLY A   4       4.578 -19.800 -14.114  0.00  0.00    -0.295 N 
ATOM     52  H   GLY A   4       4.592 -19.000 -14.778  0.00  0.00    +0.150 HD
BRANCH  49  53
ATOM     53  CA  ILE A   3       3.788 -18.266 -12.443  0.00  0.00    +0.149 C 
BRANCH  53  55
ATOM     54  C   MET A   2       1.775 -17.860 -11.198  0.00  0.00    +0.241 C 
ATOM     55  N   ILE A   3       2.980 -18.421 -11.239  0.00  0.00    -0.297 N 
ATOM     56  H   ILE A   3       3.340 -18.961 -10.426  0.00  0.00    +0.150 HD
ATOM     57  O   MET A   2       1.292 -17.116 -12.050  0.00  0.00    -0.273 OA
BRANCH  54  58
ATOM     58  CA  MET A   2       0.967 -18.200  -9.962  0.00  0.00    +0.149 C 
BRANCH  58  61
ATOM     59  C   LYS A   1       0.706 -16.462  -8.280  0.00  0.00    +0.238 C 
ATOM     60  O   LYS A   1       1.389 -17.067  -7.468  0.00  0.00    -0.274 OA
ATOM     61  N   MET A   2       0.381 -16.972  -9.460  0.00  0.00    -0.297 N 
ATOM     62  H   MET A   2      -0.319 -16.474 -10.046  0.00  0.00    +0.150 HD
BRANCH  59  63
ATOM     63  CA  LYS A   1       0.201 -15.058  -7.993  0.00  0.00    +0.145 C 
BRANCH  63  64
ATOM     64  N   LYS A   1       0.118 -14.838  -6.575  0.00  0.00    -0.238 NA
ATOM     65  H   LYS A   1       0.818 -15.317  -5.973  0.00  0.00    +0.142 HD
ENDBRANCH  63  64
BRANCH  63  66
ATOM     66  CB  LYS A   1       1.206 -14.031  -8.546  0.00  0.00    +0.026 C 
BRANCH  66  67
ATOM     67  CG  LYS A   1       1.240 -13.867 -10.044  0.00  0.00    -0.000 C 
BRANCH  67  68
ATOM     68  CD  LYS A   1       2.271 -12.798 -10.411  0.00  0.00    -0.024 C 
BRANCH  68  69
ATOM     69  CE  LYS A   1       2.642 -12.811 -11.871  0.00  0.00    -0.086 C 
BRANCH  69  70
ATOM     70  NZ  LYS A   1       1.840 -11.885 -12.696  0.00  0.00    +0.380 N 
ATOM     71  HZ1 LYS A   1       1.972 -10.913 -12.351  0.00  0.00    -0.089 HD
ATOM     72  HZ2 LYS A   1       0.835 -12.145 -12.629  0.00  0.00    -0.089 HD
ATOM     73  HZ3 LYS A   1       2.150 -11.948 -13.687  0.00  0.00    -0.089 HD
ENDBRANCH  69  70
ENDBRANCH  68  69
ENDBRANCH  67  68
ENDBRANCH  66  67
ENDBRANCH  63  66
ENDBRANCH  59  63
ENDBRANCH  58  61
BRANCH  58  74
ATOM     74  CB  MET A   2      -0.088 -19.236 -10.351  0.00  0.00    +0.041 C 
BRANCH  74  75
ATOM     75  CG  MET A   2      -0.975 -19.644  -9.206  0.00  0.00    +0.060 C 
BRANCH  75  76
ATOM     76  SD  MET A   2      -0.138 -20.761  -8.076  0.00  0.00    -0.139 S 
ATOM     77  CE  MET A   2      -1.591 -21.590  -7.396  0.00  0.00    +0.069 C 
ENDBRANCH  75  76
ENDBRANCH  74  75
ENDBRANCH  58  74
ENDBRANCH  54  58
ENDBRANCH  53  55
BRANCH  53  78
ATOM     78  CB  ILE A   3       4.985 -17.338 -12.218  0.00  0.00    +0.027 C 
ATOM     79  CG2 ILE A   3       4.505 -15.909 -11.981  0.00  0.00    +0.002 C 
BRANCH  78  80
ATOM     80  CG1 ILE A   3       5.889 -17.815 -11.090  0.00  0.00    +0.002 C 
ATOM     81  CD1 ILE A   3       7.254 -17.132 -11.116  0.00  0.00    +0.000 C 
ENDBRANCH  78  80
ENDBRANCH  53  78
ENDBRANCH  49  53
ENDBRANCH  48  51
ENDBRANCH  44  48
ENDBRANCH  43  45
ENDBRANCH   1  43
TORSDOF 36
REMARK  Name = ../refined-set-2016/2pwr/2pwr_pocket.pdb
REMARK  237 active torsions:
REMARK  status: ('A' for Active; 'I' for Inactive)
REMARK    1  A    between atoms: _1  and  _3
REMARK    2  A    between atoms: _3  and  _4
REMARK    3  A    between atoms: _3  and  _6
REMARK    4  A    between atoms: _6  and  _7
REMARK    5  A    between atoms: _7  and  _8
REMARK    6  A    between atoms: _8  and  _9
REMARK    7  A    between atoms: _18  and  _20
REMARK    8  A    between atoms: _20  and  _21
REMARK    9  A    between atoms: _20  and  _23
REMARK   10  A    between atoms: _23  and  _24
REMARK   11  A    between atoms: _27  and  _29
REMARK   12  A    between atoms: _29  and  _30
REMARK   13  A    between atoms: _29  and  _32
REMARK   14  A    between atoms: _32  and  _33
REMARK   15  A    between atoms: _36  and  _38
REMARK   16  A    between atoms: _38  and  _39
REMARK   17  A    between atoms: _38  and  _41
REMARK   18  A    between atoms: _41  and  _42
REMARK   19  A    between atoms: _45  and  _47
REMARK   20  A    between atoms: _47  and  _48
REMARK   21  A    between atoms: _47  and  _50
REMARK   22  A    between atoms: _50  and  _51
REMARK   23  A    between atoms: _54  and  _56
REMARK   24  A    between atoms: _56  and  _57
REMARK   25  A    between atoms: _59  and  _61
REMARK   26  A    between atoms: _61  and  _62
REMARK   27  A    between atoms: _65  and  _67
REMARK   28  A    between atoms: _67  and  _68
REMARK   29  A    between atoms: _67  and  _70
REMARK   30  A    between atoms: _70  and  _71
REMARK   31  A    between atoms: _74  and  _76
REMARK   32  A    between atoms: _76  and  _77
REMARK   33  A    between atoms: _76  and  _79
REMARK   34  A    between atoms: _79  and  _80
REMARK   35  A    between atoms: _83  and  _85
REMARK   36  A    between atoms: _85  and  _86
REMARK   37  A    between atoms: _85  and  _88
REMARK   38  A    between atoms: _88  and  _89
REMARK   39  A    between atoms: _92  and  _94
REMARK   40  A    between atoms: _94  and  _95
REMARK   41  A    between atoms: _94  and  _97
REMARK   42  A    between atoms: _100  and  _102
REMARK   43  A    between atoms: _102  and  _103
REMARK   44  A    between atoms: _102  and  _105
REMARK   45  A    between atoms: _105  and  _106
REMARK   46  A    between atoms: _106  and  _107
REMARK   47  A    between atoms: _107  and  _108
REMARK   48  A    between atoms: _108  and  _109
REMARK   49  A    between atoms: _113  and  _115
REMARK   50  A    between atoms: _115  and  _116
REMARK   51  A    between atoms: _115  and  _118
REMARK   52  A    between atoms: _118  and  _119
REMARK   53  A    between atoms: _119  and  _120
REMARK   54  A    between atoms: _122  and  _124
REMARK   55  A    between atoms: _124  and  _125
REMARK   56  A    between atoms: _124  and  _127
REMARK   57  A    between atoms: _127  and  _128
REMARK   58  A    between atoms: _131  and  _133
REMARK   59  A    between atoms: _133  and  _134
REMARK   60  A    between atoms: _136  and  _138
REMARK   61  A    between atoms: _138  and  _139
REMARK   62  A    between atoms: _141  and  _143
REMARK   63  A    between atoms: _143  and  _144
REMARK   64  A    between atoms: _143  and  _146
REMARK   65  A    between atoms: _146  and  _147
REMARK   66  A    between atoms: _150  and  _152
REMARK   67  A    between atoms: _152  and  _153
REMARK   68  A    between atoms: _155  and  _157
REMARK   69  A    between atoms: _157  and  _158
REMARK   70  A    between atoms: _160  and  _162
REMARK   71  A    between atoms: _162  and  _163
REMARK   72  A    between atoms: _162  and  _165
REMARK   73  A    between atoms: _165  and  _166
REMARK   74  A    between atoms: _172  and  _174
REMARK   75  A    between atoms: _174  and  _175
REMARK   76  A    between atoms: _174  and  _177
REMARK   77  A    between atoms: _177  and  _178
REMARK   78  A    between atoms: _181  and  _183
REMARK   79  A    between atoms: _183  and  _184
REMARK   80  A    between atoms: _183  and  _186
REMARK   81  A    between atoms: _189  and  _191
REMARK   82  A    between atoms: _191  and  _192
REMARK   83  A    between atoms: _191  and  _194
REMARK   84  A    between atoms: _194  and  _195
REMARK   85  A    between atoms: _198  and  _200
REMARK   86  A    between atoms: _200  and  _201
REMARK   87  A    between atoms: _200  and  _203
REMARK   88  A    between atoms: _203  and  _204
REMARK   89  A    between atoms: _208  and  _209
REMARK   90  A    between atoms: _214  and  _216
REMARK   91  A    between atoms: _216  and  _217
REMARK   92  A    between atoms: _216  and  _219
REMARK   93  A    between atoms: _222  and  _224
REMARK   94  A    between atoms: _224  and  _225
REMARK   95  A    between atoms: _224  and  _227
REMARK   96  A    between atoms: _227  and  _228
REMARK   97  A    between atoms: _233  and  _235
REMARK   98  A    between atoms: _235  and  _236
REMARK   99  A    between atoms: _235  and  _238
REMARK  100  A    between atoms: _238  and  _239
REMARK  101  A    between atoms: _242  and  _244
REMARK  102  A    between atoms: _244  and  _245
REMARK  103  A    between atoms: _244  and  _247
REMARK  104  A    between atoms: _247  and  _248
REMARK  105  A    between atoms: _251  and  _253
REMARK  106  A    between atoms: _253  and  _254
REMARK  107  A    between atoms: _256  and  _258
REMARK  108  A    between atoms: _258  and  _259
REMARK  109  A    between atoms: _258  and  _261
REMARK  110  A    between atoms: _261  and  _262
REMARK  111  A    between atoms: _262  and  _263
REMARK  112  A    between atoms: _263  and  _264
REMARK  113  A    between atoms: _273  and  _275
REMARK  114  A    between atoms: _275  and  _276
REMARK  115  A    between atoms: _275  and  _278
REMARK  116  A    between atoms: _278  and  _279
REMARK  117  A    between atoms: _284  and  _286
REMARK  118  A    between atoms: _286  and  _287
REMARK  119  A    between atoms: _286  and  _289
REMARK  120  A    between atoms: _289  and  _290
REMARK  121  A    between atoms: _290  and  _291
REMARK  122  A    between atoms: _291  and  _292
REMARK  123  A    between atoms: _301  and  _303
REMARK  124  A    between atoms: _303  and  _304
REMARK  125  A    between atoms: _303  and  _306
REMARK  126  A    between atoms: _306  and  _307
REMARK  127  A    between atoms: _310  and  _312
REMARK  128  A    between atoms: _312  and  _313
REMARK  129  A    between atoms: _312  and  _315
REMARK  130  A    between atoms: _315  and  _316
REMARK  131  A    between atoms: _319  and  _321
REMARK  132  A    between atoms: _321  and  _322
REMARK  133  A    between atoms: _321  and  _324
REMARK  134  A    between atoms: _324  and  _325
REMARK  135  A    between atoms: _328  and  _330
REMARK  136  A    between atoms: _330  and  _331
REMARK  137  A    between atoms: _330  and  _333
REMARK  138  A    between atoms: _333  and  _334
REMARK  139  A    between atoms: _337  and  _339
REMARK  140  A    between atoms: _339  and  _340
REMARK  141  A    between atoms: _339  and  _342
REMARK  142  A    between atoms: _342  and  _343
REMARK  143  A    between atoms: _346  and  _348
REMARK  144  A    between atoms: _348  and  _349
REMARK  145  A    between atoms: _351  and  _353
REMARK  146  A    between atoms: _353  and  _354
REMARK  147  A    between atoms: _357  and  _359
REMARK  148  A    between atoms: _359  and  _360
REMARK  149  A    between atoms: _359  and  _362
REMARK  150  A    between atoms: _362  and  _363
REMARK  151  A    between atoms: _366  and  _368
REMARK  152  A    between atoms: _368  and  _369
REMARK  153  A    between atoms: _368  and  _371
REMARK  154  A    between atoms: _371  and  _372
REMARK  155  A    between atoms: _375  and  _377
REMARK  156  A    between atoms: _377  and  _378
REMARK  157  A    between atoms: _377  and  _380
REMARK  158  A    between atoms: _380  and  _381
REMARK  159  A    between atoms: _384  and  _386
REMARK  160  A    between atoms: _386  and  _387
REMARK  161  A    between atoms: _386  and  _389
REMARK  162  A    between atoms: _392  and  _394
REMARK  163  A    between atoms: _394  and  _395
REMARK  164  A    between atoms: _394  and  _397
REMARK  165  A    between atoms: _397  and  _398
REMARK  166  A    between atoms: _398  and  _399
REMARK  167  A    between atoms: _399  and  _400
REMARK  168  A    between atoms: _400  and  _401
REMARK  169  A    between atoms: _405  and  _407
REMARK  170  A    between atoms: _407  and  _408
REMARK  171  A    between atoms: _407  and  _410
REMARK  172  A    between atoms: _410  and  _411
REMARK  173  A    between atoms: _411  and  _412
REMARK  174  A    between atoms: _414  and  _416
REMARK  175  A    between atoms: _416  and  _417
REMARK  176  A    between atoms: _416  and  _419
REMARK  177  A    between atoms: _419  and  _420
REMARK  178  A    between atoms: _423  and  _425
REMARK  179  A    between atoms: _425  and  _426
REMARK  180  A    between atoms: _428  and  _430
REMARK  181  A    between atoms: _430  and  _431
REMARK  182  A    between atoms: _433  and  _435
REMARK  183  A    between atoms: _435  and  _436
REMARK  184  A    between atoms: _435  and  _438
REMARK  185  A    between atoms: _438  and  _439
REMARK  186  A    between atoms: _442  and  _444
REMARK  187  A    between atoms: _444  and  _445
REMARK  188  A    between atoms: _447  and  _449
REMARK  189  A    between atoms: _449  and  _450
REMARK  190  A    between atoms: _452  and  _454
REMARK  191  A    between atoms: _454  and  _455
REMARK  192  A    between atoms: _454  and  _457
REMARK  193  A    between atoms: _457  and  _458
REMARK  194  A    between atoms: _464  and  _466
REMARK  195  A    between atoms: _466  and  _467
REMARK  196  A    between atoms: _466  and  _469
REMARK  197  A    between atoms: _469  and  _470
REMARK  198  A    between atoms: _473  and  _475
REMARK  199  A    between atoms: _475  and  _476
REMARK  200  A    between atoms: _475  and  _478
REMARK  201  A    between atoms: _481  and  _483
REMARK  202  A    between atoms: _483  and  _484
REMARK  203  A    between atoms: _483  and  _486
REMARK  204  A    between atoms: _486  and  _487
REMARK  205  A    between atoms: _491  and  _492
REMARK  206  A    between atoms: _497  and  _499
REMARK  207  A    between atoms: _499  and  _500
REMARK  208  A    between atoms: _499  and  _502
REMARK  209  A    between atoms: _502  and  _503
REMARK  210  A    between atoms: _507  and  _508
REMARK  211  A    between atoms: _513  and  _515
REMARK  212  A    between atoms: _515  and  _516
REMARK  213  A    between atoms: _515  and  _518
REMARK  214  A    between atoms: _521  and  _523
REMARK  215  A    between atoms: _523  and  _524
REMARK  216  A    between atoms: _523  and  _526
REMARK  217  A    between atoms: _526  and  _527
REMARK  218  A    between atoms: _532  and  _534
REMARK  219  A    between atoms: _534  and  _535
REMARK  220  A    between atoms: _534  and  _537
REMARK  221  A    between atoms: _537  and  _538
REMARK  222  A    between atoms: _541  and  _543
REMARK  223  A    between atoms: _543  and  _544
REMARK  224  A    between atoms: _543  and  _546
REMARK  225  A    between atoms: _546  and  _547
REMARK  226  A    between atoms: _550  and  _552
REMARK  227  A    between atoms: _552  and  _553
REMARK  228  A    between atoms: _555  and  _557
REMARK  229  A    between atoms: _557  and  _558
REMARK  230  A    between atoms: _557  and  _560
REMARK  231  A    between atoms: _560  and  _561
REMARK  232  A    between atoms: _561  and  _562
REMARK  233  A    between atoms: _562  and  _563
REMARK  234  A    between atoms: _572  and  _574
REMARK  235  A    between atoms: _574  and  _575
REMARK  236  A    between atoms: _574  and  _577
REMARK  237  A    between atoms: _577  and  _578
REMARK                            x       y       z     vdW  Elec       q    Type
REMARK                         _______ _______ _______ _____ _____    ______ ____
ROOT
ATOM      1  CA  VAL A   1       4.425 -16.787  -5.291  0.00  0.00    +0.133 C 
ENDROOT
BRANCH   1   2
ATOM      2  CB  VAL A   1       5.285 -16.209  -6.421  0.00  0.00    +0.023 C 
ATOM      3  CG2 VAL A   1       6.222 -17.290  -6.968  0.00  0.00    +0.002 C 
ATOM      4  CG1 VAL A   1       4.498 -15.653  -7.574  0.00  0.00    +0.002 C 
ENDBRANCH   1   2
BRANCH   1   5
ATOM      5  N   VAL A   1       3.483 -17.768  -5.788  0.00  0.00    -0.239 NA
ATOM      6  H   VAL A   1       2.658 -17.450  -6.335  0.00  0.00    +0.142 HD
ENDBRANCH   1   5
BRANCH   1   7
ATOM      7  C   VAL A   1       3.643 -15.659  -4.640  0.00  0.00    +0.224 C 
ATOM      8  O   VAL A   1       2.458 -15.507  -4.898  0.00  0.00    -0.287 OA
ENDBRANCH   1   7
TORSDOF 3
REMARK  Name = ../refined-set-2016/2pwr/2pwr_pocket.pdb
REMARK  237 active torsions:
REMARK  status: ('A' for Active; 'I' for Inactive)
REMARK    1  A    between atoms: _1  and  _3
REMARK    2  A    between atoms: _3  and  _4
REMARK    3  A    between atoms: _3  and  _6
REMARK    4  A    between atoms: _6  and  _7
REMARK    5  A    between atoms: _7  and  _8
REMARK    6  A    between atoms: _8  and  _9
REMARK    7  A    between atoms: _18  and  _20
REMARK    8  A    between atoms: _20  and  _21
REMARK    9  A    between atoms: _20  and  _23
REMARK   10  A    between atoms: _23  and  _24
REMARK   11  A    between atoms: _27  and  _29
REMARK   12  A    between atoms: _29  and  _30
REMARK   13  A    between atoms: _29  and  _32
REMARK   14  A    between atoms: _32  and  _33
REMARK   15  A    between atoms: _36  and  _38
REMARK   16  A    between atoms: _38  and  _39
REMARK   17  A    between atoms: _38  and  _41
REMARK   18  A    between atoms: _41  and  _42
REMARK   19  A    between atoms: _45  and  _47
REMARK   20  A    between atoms: _47  and  _48
REMARK   21  A    between atoms: _47  and  _50
REMARK   22  A    between atoms: _50  and  _51
REMARK   23  A    between atoms: _54  and  _56
REMARK   24  A    between atoms: _56  and  _57
REMARK   25  A    between atoms: _59  and  _61
REMARK   26  A    between atoms: _61  and  _62
REMARK   27  A    between atoms: _65  and  _67
REMARK   28  A    between atoms: _67  and  _68
REMARK   29  A    between atoms: _67  and  _70
REMARK   30  A    between atoms: _70  and  _71
REMARK   31  A    between atoms: _74  and  _76
REMARK   32  A    between atoms: _76  and  _77
REMARK   33  A    between atoms: _76  and  _79
REMARK   34  A    between atoms: _79  and  _80
REMARK   35  A    between atoms: _83  and  _85
REMARK   36  A    between atoms: _85  and  _86
REMARK   37  A    between atoms: _85  and  _88
REMARK   38  A    between atoms: _88  and  _89
REMARK   39  A    between atoms: _92  and  _94
REMARK   40  A    between atoms: _94  and  _95
REMARK   41  A    between atoms: _94  and  _97
REMARK   42  A    between atoms: _100  and  _102
REMARK   43  A    between atoms: _102  and  _103
REMARK   44  A    between atoms: _102  and  _105
REMARK   45  A    between atoms: _105  and  _106
REMARK   46  A    between atoms: _106  and  _107
REMARK   47  A    between atoms: _107  and  _108
REMARK   48  A    between atoms: _108  and  _109
REMARK   49  A    between atoms: _113  and  _115
REMARK   50  A    between atoms: _115  and  _116
REMARK   51  A    between atoms: _115  and  _118
REMARK   52  A    between atoms: _118  and  _119
REMARK   53  A    between atoms: _119  and  _120
REMARK   54  A    between atoms: _122  and  _124
REMARK   55  A    between atoms: _124  and  _125
REMARK   56  A    between atoms: _124  and  _127
REMARK   57  A    between atoms: _127  and  _128
REMARK   58  A    between atoms: _131  and  _133
REMARK   59  A    between atoms: _133  and  _134
REMARK   60  A    between atoms: _136  and  _138
REMARK   61  A    between atoms: _138  and  _139
REMARK   62  A    between atoms: _141  and  _143
REMARK   63  A    between atoms: _143  and  _144
REMARK   64  A    between atoms: _143  and  _146
REMARK   65  A    between atoms: _146  and  _147
REMARK   66  A    between atoms: _150  and  _152
REMARK   67  A    between atoms: _152  and  _153
REMARK   68  A    between atoms: _155  and  _157
REMARK   69  A    between atoms: _157  and  _158
REMARK   70  A    between atoms: _160  and  _162
REMARK   71  A    between atoms: _162  and  _163
REMARK   72  A    between atoms: _162  and  _165
REMARK   73  A    between atoms: _165  and  _166
REMARK   74  A    between atoms: _172  and  _174
REMARK   75  A    between atoms: _174  and  _175
REMARK   76  A    between atoms: _174  and  _177
REMARK   77  A    between atoms: _177  and  _178
REMARK   78  A    between atoms: _181  and  _183
REMARK   79  A    between atoms: _183  and  _184
REMARK   80  A    between atoms: _183  and  _186
REMARK   81  A    between atoms: _189  and  _191
REMARK   82  A    between atoms: _191  and  _192
REMARK   83  A    between atoms: _191  and  _194
REMARK   84  A    between atoms: _194  and  _195
REMARK   85  A    between atoms: _198  and  _200
REMARK   86  A    between atoms: _200  and  _201
REMARK   87  A    between atoms: _200  and  _203
REMARK   88  A    between atoms: _203  and  _204
REMARK   89  A    between atoms: _208  and  _209
REMARK   90  A    between atoms: _214  and  _216
REMARK   91  A    between atoms: _216  and  _217
REMARK   92  A    between atoms: _216  and  _219
REMARK   93  A    between atoms: _222  and  _224
REMARK   94  A    between atoms: _224  and  _225
REMARK   95  A    between atoms: _224  and  _227
REMARK   96  A    between atoms: _227  and  _228
REMARK   97  A    between atoms: _233  and  _235
REMARK   98  A    between atoms: _235  and  _236
REMARK   99  A    between atoms: _235  and  _238
REMARK  100  A    between atoms: _238  and  _239
REMARK  101  A    between atoms: _242  and  _244
REMARK  102  A    between atoms: _244  and  _245
REMARK  103  A    between atoms: _244  and  _247
REMARK  104  A    between atoms: _247  and  _248
REMARK  105  A    between atoms: _251  and  _253
REMARK  106  A    between atoms: _253  and  _254
REMARK  107  A    between atoms: _256  and  _258
REMARK  108  A    between atoms: _258  and  _259
REMARK  109  A    between atoms: _258  and  _261
REMARK  110  A    between atoms: _261  and  _262
REMARK  111  A    between atoms: _262  and  _263
REMARK  112  A    between atoms: _263  and  _264
REMARK  113  A    between atoms: _273  and  _275
REMARK  114  A    between atoms: _275  and  _276
REMARK  115  A    between atoms: _275  and  _278
REMARK  116  A    between atoms: _278  and  _279
REMARK  117  A    between atoms: _284  and  _286
REMARK  118  A    between atoms: _286  and  _287
REMARK  119  A    between atoms: _286  and  _289
REMARK  120  A    between atoms: _289  and  _290
REMARK  121  A    between atoms: _290  and  _291
REMARK  122  A    between atoms: _291  and  _292
REMARK  123  A    between atoms: _301  and  _303
REMARK  124  A    between atoms: _303  and  _304
REMARK  125  A    between atoms: _303  and  _306
REMARK  126  A    between atoms: _306  and  _307
REMARK  127  A    between atoms: _310  and  _312
REMARK  128  A    between atoms: _312  and  _313
REMARK  129  A    between atoms: _312  and  _315
REMARK  130  A    between atoms: _315  and  _316
REMARK  131  A    between atoms: _319  and  _321
REMARK  132  A    between atoms: _321  and  _322
REMARK  133  A    between atoms: _321  and  _324
REMARK  134  A    between atoms: _324  and  _325
REMARK  135  A    between atoms: _328  and  _330
REMARK  136  A    between atoms: _330  and  _331
REMARK  137  A    between atoms: _330  and  _333
REMARK  138  A    between atoms: _333  and  _334
REMARK  139  A    between atoms: _337  and  _339
REMARK  140  A    between atoms: _339  and  _340
REMARK  141  A    between atoms: _339  and  _342
REMARK  142  A    between atoms: _342  and  _343
REMARK  143  A    between atoms: _346  and  _348
REMARK  144  A    between atoms: _348  and  _349
REMARK  145  A    between atoms: _351  and  _353
REMARK  146  A    between atoms: _353  and  _354
REMARK  147  A    between atoms: _357  and  _359
REMARK  148  A    between atoms: _359  and  _360
REMARK  149  A    between atoms: _359  and  _362
REMARK  150  A    between atoms: _362  and  _363
REMARK  151  A    between atoms: _366  and  _368
REMARK  152  A    between atoms: _368  and  _369
REMARK  153  A    between atoms: _368  and  _371
REMARK  154  A    between atoms: _371  and  _372
REMARK  155  A    between atoms: _375  and  _377
REMARK  156  A    between atoms: _377  and  _378
REMARK  157  A    between atoms: _377  and  _380
REMARK  158  A    between atoms: _380  and  _381
REMARK  159  A    between atoms: _384  and  _386
REMARK  160  A    between atoms: _386  and  _387
REMARK  161  A    between atoms: _386  and  _389
REMARK  162  A    between atoms: _392  and  _394
REMARK  163  A    between atoms: _394  and  _395
REMARK  164  A    between atoms: _394  and  _397
REMARK  165  A    between atoms: _397  and  _398
REMARK  166  A    between atoms: _398  and  _399
REMARK  167  A    between atoms: _399  and  _400
REMARK  168  A    between atoms: _400  and  _401
REMARK  169  A    between atoms: _405  and  _407
REMARK  170  A    between atoms: _407  and  _408
REMARK  171  A    between atoms: _407  and  _410
REMARK  172  A    between atoms: _410  and  _411
REMARK  173  A    between atoms: _411  and  _412
REMARK  174  A    between atoms: _414  and  _416
REMARK  175  A    between atoms: _416  and  _417
REMARK  176  A    between atoms: _416  and  _419
REMARK  177  A    between atoms: _419  and  _420
REMARK  178  A    between atoms: _423  and  _425
REMARK  179  A    between atoms: _425  and  _426
REMARK  180  A    between atoms: _428  and  _430
REMARK  181  A    between atoms: _430  and  _431
REMARK  182  A    between atoms: _433  and  _435
REMARK  183  A    between atoms: _435  and  _436
REMARK  184  A    between atoms: _435  and  _438
REMARK  185  A    between atoms: _438  and  _439
REMARK  186  A    between atoms: _442  and  _444
REMARK  187  A    between atoms: _444  and  _445
REMARK  188  A    between atoms: _447  and  _449
REMARK  189  A    between atoms: _449  and  _450
REMARK  190  A    between atoms: _452  and  _454
REMARK  191  A    between atoms: _454  and  _455
REMARK  192  A    between atoms: _454  and  _457
REMARK  193  A    between atoms: _457  and  _458
REMARK  194  A    between atoms: _464  and  _466
REMARK  195  A    between atoms: _466  and  _467
REMARK  196  A    between atoms: _466  and  _469
REMARK  197  A    between atoms: _469  and  _470
REMARK  198  A    between atoms: _473  and  _475
REMARK  199  A    between atoms: _475  and  _476
REMARK  200  A    between atoms: _475  and  _478
REMARK  201  A    between atoms: _481  and  _483
REMARK  202  A    between atoms: _483  and  _484
REMARK  203  A    between atoms: _483  and  _486
REMARK  204  A    between atoms: _486  and  _487
REMARK  205  A    between atoms: _491  and  _492
REMARK  206  A    between atoms: _497  and  _499
REMARK  207  A    between atoms: _499  and  _500
REMARK  208  A    between atoms: _499  and  _502
REMARK  209  A    between atoms: _502  and  _503
REMARK  210  A    between atoms: _507  and  _508
REMARK  211  A    between atoms: _513  and  _515
REMARK  212  A    between atoms: _515  and  _516
REMARK  213  A    between atoms: _515  and  _518
REMARK  214  A    between atoms: _521  and  _523
REMARK  215  A    between atoms: _523  and  _524
REMARK  216  A    between atoms: _523  and  _526
REMARK  217  A    between atoms: _526  and  _527
REMARK  218  A    between atoms: _532  and  _534
REMARK  219  A    between atoms: _534  and  _535
REMARK  220  A    between atoms: _534  and  _537
REMARK  221  A    between atoms: _537  and  _538
REMARK  222  A    between atoms: _541  and  _543
REMARK  223  A    between atoms: _543  and  _544
REMARK  224  A    between atoms: _543  and  _546
REMARK  225  A    between atoms: _546  and  _547
REMARK  226  A    between atoms: _550  and  _552
REMARK  227  A    between atoms: _552  and  _553
REMARK  228  A    between atoms: _555  and  _557
REMARK  229  A    between atoms: _557  and  _558
REMARK  230  A    between atoms: _557  and  _560
REMARK  231  A    between atoms: _560  and  _561
REMARK  232  A    between atoms: _561  and  _562
REMARK  233  A    between atoms: _562  and  _563
REMARK  234  A    between atoms: _572  and  _574
REMARK  235  A    between atoms: _574  and  _575
REMARK  236  A    between atoms: _574  and  _577
REMARK  237  A    between atoms: _577  and  _578
REMARK                            x       y       z     vdW  Elec       q    Type
REMARK                         _______ _______ _______ _____ _____    ______ ____
ROOT
ATOM      1  CA  LEU A   1       7.812 -12.306  -6.751  0.00  0.00    +0.133 C 
ENDROOT
BRANCH   1   2
ATOM      2  N   LEU A   1       8.563 -11.118  -7.063  0.00  0.00    -0.239 NA
ATOM      3  H   LEU A   1       9.195 -11.134  -7.889  0.00  0.00    +0.142 HD
ENDBRANCH   1   2
BRANCH   1   4
ATOM      4  C   LEU A   1       8.660 -13.206  -5.870  0.00  0.00    +0.224 C 
ATOM      5  O   LEU A   1       9.830 -13.390  -6.151  0.00  0.00    -0.287 OA
ENDBRANCH   1   4
BRANCH   1   6
ATOM      6  CB  LEU A   1       7.409 -13.033  -8.017  0.00  0.00    +0.025 C 
BRANCH   6   7
ATOM      7  CG  LEU A   1       6.733 -12.153  -9.060  0.00  0.00    +0.002 C 
ATOM      8  CD2 LEU A   1       5.460 -11.502  -8.569  0.00  0.00    +0.000 C 
ATOM      9  CD1 LEU A   1       6.442 -12.998 -10.286  0.00  0.00    +0.000 C 
ENDBRANCH   6   7
ENDBRANCH   1   6
TORSDOF 4
REMARK  Name = ../refined-set-2016/2pwr/2pwr_pocket.pdb
REMARK  237 active torsions:
REMARK  status: ('A' for Active; 'I' for Inactive)
REMARK    1  A    between atoms: _1  and  _3
REMARK    2  A    between atoms: _3  and  _4
REMARK    3  A    between atoms: _3  and  _6
REMARK    4  A    between atoms: _6  and  _7
REMARK    5  A    between atoms: _7  and  _8
REMARK    6  A    between atoms: _8  and  _9
REMARK    7  A    between atoms: _18  and  _20
REMARK    8  A    between atoms: _20  and  _21
REMARK    9  A    between atoms: _20  and  _23
REMARK   10  A    between atoms: _23  and  _24
REMARK   11  A    between atoms: _27  and  _29
REMARK   12  A    between atoms: _29  and  _30
REMARK   13  A    between atoms: _29  and  _32
REMARK   14  A    between atoms: _32  and  _33
REMARK   15  A    between atoms: _36  and  _38
REMARK   16  A    between atoms: _38  and  _39
REMARK   17  A    between atoms: _38  and  _41
REMARK   18  A    between atoms: _41  and  _42
REMARK   19  A    between atoms: _45  and  _47
REMARK   20  A    between atoms: _47  and  _48
REMARK   21  A    between atoms: _47  and  _50
REMARK   22  A    between atoms: _50  and  _51
REMARK   23  A    between atoms: _54  and  _56
REMARK   24  A    between atoms: _56  and  _57
REMARK   25  A    between atoms: _59  and  _61
REMARK   26  A    between atoms: _61  and  _62
REMARK   27  A    between atoms: _65  and  _67
REMARK   28  A    between atoms: _67  and  _68
REMARK   29  A    between atoms: _67  and  _70
REMARK   30  A    between atoms: _70  and  _71
REMARK   31  A    between atoms: _74  and  _76
REMARK   32  A    between atoms: _76  and  _77
REMARK   33  A    between atoms: _76  and  _79
REMARK   34  A    between atoms: _79  and  _80
REMARK   35  A    between atoms: _83  and  _85
REMARK   36  A    between atoms: _85  and  _86
REMARK   37  A    between atoms: _85  and  _88
REMARK   38  A    between atoms: _88  and  _89
REMARK   39  A    between atoms: _92  and  _94
REMARK   40  A    between atoms: _94  and  _95
REMARK   41  A    between atoms: _94  and  _97
REMARK   42  A    between atoms: _100  and  _102
REMARK   43  A    between atoms: _102  and  _103
REMARK   44  A    between atoms: _102  and  _105
REMARK   45  A    between atoms: _105  and  _106
REMARK   46  A    between atoms: _106  and  _107
REMARK   47  A    between atoms: _107  and  _108
REMARK   48  A    between atoms: _108  and  _109
REMARK   49  A    between atoms: _113  and  _115
REMARK   50  A    between atoms: _115  and  _116
REMARK   51  A    between atoms: _115  and  _118
REMARK   52  A    between atoms: _118  and  _119
REMARK   53  A    between atoms: _119  and  _120
REMARK   54  A    between atoms: _122  and  _124
REMARK   55  A    between atoms: _124  and  _125
REMARK   56  A    between atoms: _124  and  _127
REMARK   57  A    between atoms: _127  and  _128
REMARK   58  A    between atoms: _131  and  _133
REMARK   59  A    between atoms: _133  and  _134
REMARK   60  A    between atoms: _136  and  _138
REMARK   61  A    between atoms: _138  and  _139
REMARK   62  A    between atoms: _141  and  _143
REMARK   63  A    between atoms: _143  and  _144
REMARK   64  A    between atoms: _143  and  _146
REMARK   65  A    between atoms: _146  and  _147
REMARK   66  A    between atoms: _150  and  _152
REMARK   67  A    between atoms: _152  and  _153
REMARK   68  A    between atoms: _155  and  _157
REMARK   69  A    between atoms: _157  and  _158
REMARK   70  A    between atoms: _160  and  _162
REMARK   71  A    between atoms: _162  and  _163
REMARK   72  A    between atoms: _162  and  _165
REMARK   73  A    between atoms: _165  and  _166
REMARK   74  A    between atoms: _172  and  _174
REMARK   75  A    between atoms: _174  and  _175
REMARK   76  A    between atoms: _174  and  _177
REMARK   77  A    between atoms: _177  and  _178
REMARK   78  A    between atoms: _181  and  _183
REMARK   79  A    between atoms: _183  and  _184
REMARK   80  A    between atoms: _183  and  _186
REMARK   81  A    between atoms: _189  and  _191
REMARK   82  A    between atoms: _191  and  _192
REMARK   83  A    between atoms: _191  and  _194
REMARK   84  A    between atoms: _194  and  _195
REMARK   85  A    between atoms: _198  and  _200
REMARK   86  A    between atoms: _200  and  _201
REMARK   87  A    between atoms: _200  and  _203
REMARK   88  A    between atoms: _203  and  _204
REMARK   89  A    between atoms: _208  and  _209
REMARK   90  A    between atoms: _214  and  _216
REMARK   91  A    between atoms: _216  and  _217
REMARK   92  A    between atoms: _216  and  _219
REMARK   93  A    between atoms: _222  and  _224
REMARK   94  A    between atoms: _224  and  _225
REMARK   95  A    between atoms: _224  and  _227
REMARK   96  A    between atoms: _227  and  _228
REMARK   97  A    between atoms: _233  and  _235
REMARK   98  A    between atoms: _235  and  _236
REMARK   99  A    between atoms: _235  and  _238
REMARK  100  A    between atoms: _238  and  _239
REMARK  101  A    between atoms: _242  and  _244
REMARK  102  A    between atoms: _244  and  _245
REMARK  103  A    between atoms: _244  and  _247
REMARK  104  A    between atoms: _247  and  _248
REMARK  105  A    between atoms: _251  and  _253
REMARK  106  A    between atoms: _253  and  _254
REMARK  107  A    between atoms: _256  and  _258
REMARK  108  A    between atoms: _258  and  _259
REMARK  109  A    between atoms: _258  and  _261
REMARK  110  A    between atoms: _261  and  _262
REMARK  111  A    between atoms: _262  and  _263
REMARK  112  A    between atoms: _263  and  _264
REMARK  113  A    between atoms: _273  and  _275
REMARK  114  A    between atoms: _275  and  _276
REMARK  115  A    between atoms: _275  and  _278
REMARK  116  A    between atoms: _278  and  _279
REMARK  117  A    between atoms: _284  and  _286
REMARK  118  A    between atoms: _286  and  _287
REMARK  119  A    between atoms: _286  and  _289
REMARK  120  A    between atoms: _289  and  _290
REMARK  121  A    between atoms: _290  and  _291
REMARK  122  A    between atoms: _291  and  _292
REMARK  123  A    between atoms: _301  and  _303
REMARK  124  A    between atoms: _303  and  _304
REMARK  125  A    between atoms: _303  and  _306
REMARK  126  A    between atoms: _306  and  _307
REMARK  127  A    between atoms: _310  and  _312
REMARK  128  A    between atoms: _312  and  _313
REMARK  129  A    between atoms: _312  and  _315
REMARK  130  A    between atoms: _315  and  _316
REMARK  131  A    between atoms: _319  and  _321
REMARK  132  A    between atoms: _321  and  _322
REMARK  133  A    between atoms: _321  and  _324
REMARK  134  A    between atoms: _324  and  _325
REMARK  135  A    between atoms: _328  and  _330
REMARK  136  A    between atoms: _330  and  _331
REMARK  137  A    between atoms: _330  and  _333
REMARK  138  A    between atoms: _333  and  _334
REMARK  139  A    between atoms: _337  and  _339
REMARK  140  A    between atoms: _339  and  _340
REMARK  141  A    between atoms: _339  and  _342
REMARK  142  A    between atoms: _342  and  _343
REMARK  143  A    between atoms: _346  and  _348
REMARK  144  A    between atoms: _348  and  _349
REMARK  145  A    between atoms: _351  and  _353
REMARK  146  A    between atoms: _353  and  _354
REMARK  147  A    between atoms: _357  and  _359
REMARK  148  A    between atoms: _359  and  _360
REMARK  149  A    between atoms: _359  and  _362
REMARK  150  A    between atoms: _362  and  _363
REMARK  151  A    between atoms: _366  and  _368
REMARK  152  A    between atoms: _368  and  _369
REMARK  153  A    between atoms: _368  and  _371
REMARK  154  A    between atoms: _371  and  _372
REMARK  155  A    between atoms: _375  and  _377
REMARK  156  A    between atoms: _377  and  _378
REMARK  157  A    between atoms: _377  and  _380
REMARK  158  A    between atoms: _380  and  _381
REMARK  159  A    between atoms: _384  and  _386
REMARK  160  A    between atoms: _386  and  _387
REMARK  161  A    between atoms: _386  and  _389
REMARK  162  A    between atoms: _392  and  _394
REMARK  163  A    between atoms: _394  and  _395
REMARK  164  A    between atoms: _394  and  _397
REMARK  165  A    between atoms: _397  and  _398
REMARK  166  A    between atoms: _398  and  _399
REMARK  167  A    between atoms: _399  and  _400
REMARK  168  A    between atoms: _400  and  _401
REMARK  169  A    between atoms: _405  and  _407
REMARK  170  A    between atoms: _407  and  _408
REMARK  171  A    between atoms: _407  and  _410
REMARK  172  A    between atoms: _410  and  _411
REMARK  173  A    between atoms: _411  and  _412
REMARK  174  A    between atoms: _414  and  _416
REMARK  175  A    between atoms: _416  and  _417
REMARK  176  A    between atoms: _416  and  _419
REMARK  177  A    between atoms: _419  and  _420
REMARK  178  A    between atoms: _423  and  _425
REMARK  179  A    between atoms: _425  and  _426
REMARK  180  A    between atoms: _428  and  _430
REMARK  181  A    between atoms: _430  and  _431
REMARK  182  A    between atoms: _433  and  _435
REMARK  183  A    between atoms: _435  and  _436
REMARK  184  A    between atoms: _435  and  _438
REMARK  185  A    between atoms: _438  and  _439
REMARK  186  A    between atoms: _442  and  _444
REMARK  187  A    between atoms: _444  and  _445
REMARK  188  A    between atoms: _447  and  _449
REMARK  189  A    between atoms: _449  and  _450
REMARK  190  A    between atoms: _452  and  _454
REMARK  191  A    between atoms: _454  and  _455
REMARK  192  A    between atoms: _454  and  _457
REMARK  193  A    between atoms: _457  and  _458
REMARK  194  A    between atoms: _464  and  _466
REMARK  195  A    between atoms: _466  and  _467
REMARK  196  A    between atoms: _466  and  _469
REMARK  197  A    between atoms: _469  and  _470
REMARK  198  A    between atoms: _473  and  _475
REMARK  199  A    between atoms: _475  and  _476
REMARK  200  A    between atoms: _475  and  _478
REMARK  201  A    between atoms: _481  and  _483
REMARK  202  A    between atoms: _483  and  _484
REMARK  203  A    between atoms: _483  and  _486
REMARK  204  A    between atoms: _486  and  _487
REMARK  205  A    between atoms: _491  and  _492
REMARK  206  A    between atoms: _497  and  _499
REMARK  207  A    between atoms: _499  and  _500
REMARK  208  A    between atoms: _499  and  _502
REMARK  209  A    between atoms: _502  and  _503
REMARK  210  A    between atoms: _507  and  _508
REMARK  211  A    between atoms: _513  and  _515
REMARK  212  A    between atoms: _515  and  _516
REMARK  213  A    between atoms: _515  and  _518
REMARK  214  A    between atoms: _521  and  _523
REMARK  215  A    between atoms: _523  and  _524
REMARK  216  A    between atoms: _523  and  _526
REMARK  217  A    between atoms: _526  and  _527
REMARK  218  A    between atoms: _532  and  _534
REMARK  219  A    between atoms: _534  and  _535
REMARK  220  A    between atoms: _534  and  _537
REMARK  221  A    between atoms: _537  and  _538
REMARK  222  A    between atoms: _541  and  _543
REMARK  223  A    between atoms: _543  and  _544
REMARK  224  A    between atoms: _543  and  _546
REMARK  225  A    between atoms: _546  and  _547
REMARK  226  A    between atoms: _550  and  _552
REMARK  227  A    between atoms: _552  and  _553
REMARK  228  A    between atoms: _555  and  _557
REMARK  229  A    between atoms: _557  and  _558
REMARK  230  A    between atoms: _557  and  _560
REMARK  231  A    between atoms: _560  and  _561
REMARK  232  A    between atoms: _561  and  _562
REMARK  233  A    between atoms: _562  and  _563
REMARK  234  A    between atoms: _572  and  _574
REMARK  235  A    between atoms: _574  and  _575
REMARK  236  A    between atoms: _574  and  _577
REMARK  237  A    between atoms: _577  and  _578
REMARK                            x       y       z     vdW  Elec       q    Type
REMARK                         _______ _______ _______ _____ _____    ______ ____
ROOT
ATOM      1  C   ILE A   5      15.478 -13.040 -11.303  0.00  0.00    +0.241 C 
ATOM      2  O   ILE A   5      14.543 -12.611 -10.628  0.00  0.00    -0.273 OA
ATOM      3  N   ILE A   6      16.235 -12.259 -12.033  0.00  0.00    -0.297 N 
ATOM      4  H   ILE A   6      17.093 -12.672 -12.451  0.00  0.00    +0.150 HD
ENDROOT
BRANCH   3   5
ATOM      5  CA  ILE A   6      15.965 -10.874 -12.297  0.00  0.00    +0.149 C 
BRANCH   5   6
ATOM      6  C   ILE A   6      15.309 -10.821 -13.672  0.00  0.00    +0.241 C 
ATOM      7  N   GLY A   7      14.033 -10.468 -13.678  0.00  0.00    -0.295 N 
ATOM      8  H   GLY A   7      13.586 -10.215 -12.774  0.00  0.00    +0.150 HD
ATOM      9  O   ILE A   6      15.920 -11.125 -14.688  0.00  0.00    -0.273 OA
BRANCH   7  10
ATOM     10  CA  GLY A   7      13.244 -10.418 -14.860  0.00  0.00    +0.176 C 
BRANCH  10  11
ATOM     11  C   GLY A   7      13.227  -9.042 -15.495  0.00  0.00    +0.243 C 
ATOM     12  O   GLY A   7      13.831  -8.095 -15.005  0.00  0.00    -0.273 OA
ATOM     13  N   ARG A   8      12.529  -9.010 -16.634  0.00  0.00    -0.297 N 
ATOM     14  H   ARG A   8      11.983  -9.839 -16.945  0.00  0.00    +0.150 HD
BRANCH  13  15
ATOM     15  CA  ARG A   8      12.548  -7.781 -17.437  0.00  0.00    +0.149 C 
BRANCH  15  16
ATOM     16  C   ARG A   8      12.049  -6.608 -16.637  0.00  0.00    +0.241 C 
ATOM     17  N   ASN A   9      11.147  -6.798 -15.692  0.00  0.00    -0.298 N 
ATOM     18  H   ASN A   9      10.826  -7.759 -15.456  0.00  0.00    +0.150 HD
ATOM     19  O   ARG A   8      12.497  -5.502 -16.910  0.00  0.00    -0.273 OA
BRANCH  17  20
ATOM     20  CA  ASN A   9      10.603  -5.637 -14.978  0.00  0.00    +0.146 C 
BRANCH  20  21
ATOM     21  C   ASN A   9      11.664  -4.824 -14.278  0.00  0.00    +0.227 C 
ATOM     22  O   ASN A   9      11.491  -3.618 -14.094  0.00  0.00    -0.286 OA
ENDBRANCH  20  21
BRANCH  20  23
ATOM     23  CB  ASN A   9       9.522  -6.103 -14.002  0.00  0.00    +0.112 C 
BRANCH  23  24
ATOM     24  CG  ASN A   9      10.077  -6.745 -12.753  0.00  0.00    +0.222 C 
ATOM     25  ND2 ASN A   9       9.716  -6.133 -11.626  0.00  0.00    -0.329 N 
ATOM     26 HD21 ASN A   9      10.052  -6.491 -10.709  0.00  0.00    +0.145 HD
ATOM     27 HD22 ASN A   9       9.098  -5.297 -11.663  0.00  0.00    +0.145 HD
ATOM     28  OD1 ASN A   9      10.809  -7.750 -12.849  0.00  0.00    -0.275 OA
ENDBRANCH  23  24
ENDBRANCH  20  23
ENDBRANCH  17  20
ENDBRANCH  15  16
BRANCH  15  29
ATOM     29  CB  ARG A   8      11.680  -7.985 -18.666  0.00  0.00    +0.033 C 
BRANCH  29  30
ATOM     30  CG  ARG A   8      12.164  -9.055 -19.620  0.00  0.00    +0.045 C 
BRANCH  30  31
ATOM     31  CD  ARG A   8      11.408  -8.964 -20.930  0.00  0.00    +0.174 C 
BRANCH  31  32
ATOM     32  NE  ARG A   8      10.015  -9.330 -20.733  0.00  0.00    -0.265 N 
ATOM     33  CZ  ARG A   8       8.985  -8.505 -20.644  0.00  0.00    +0.342 C 
ATOM     34  NH2 ARG A   8       7.762  -8.988 -20.460  0.00  0.00    -0.292 N 
ATOM     35 HH21 ARG A   8       7.614 -10.015 -20.386  0.00  0.00    +0.255 HD
ATOM     36 HH22 ARG A   8       6.952  -8.340 -20.390  0.00  0.00    +0.255 HD
ATOM     37  NH1 ARG A   8       9.066  -7.187 -20.724  0.00  0.00    -0.292 N 
ATOM     38 HH11 ARG A   8       8.206  -6.607 -20.644  0.00  0.00    +0.255 HD
ATOM     39 HH12 ARG A   8       9.989  -6.730 -20.867  0.00  0.00    +0.255 HD
ATOM     40  HE  ARG A   8       9.807 -10.346 -20.654  0.00  0.00    +0.259 HD
ENDBRANCH  31  32
ENDBRANCH  30  31
ENDBRANCH  29  30
ENDBRANCH  15  29
ENDBRANCH  13  15
ENDBRANCH  10  11
ENDBRANCH   7  10
ENDBRANCH   5   6
BRANCH   5  41
ATOM     41  CB  ILE A   6      17.220  -9.982 -12.300  0.00  0.00    +0.027 C 
ATOM     42  CG2 ILE A   6      16.788  -8.547 -12.529  0.00  0.00    +0.002 C 
BRANCH  41  43
ATOM     43  CG1 ILE A   6      18.073 -10.173 -11.048  0.00  0.00    +0.002 C 
ATOM     44  CD1 ILE A   6      17.283  -9.889  -9.780  0.00  0.00    +0.000 C 
ENDBRANCH  41  43
ENDBRANCH   5  41
ENDBRANCH   3   5
BRANCH   1  45
ATOM     45  CA  ILE A   5      15.680 -14.537 -11.302  0.00  0.00    +0.149 C 
BRANCH  45  47
ATOM     46  C   ASN A   4      16.860 -15.821  -9.616  0.00  0.00    +0.241 C 
ATOM     47  N   ILE A   5      15.820 -15.103  -9.975  0.00  0.00    -0.297 N 
ATOM     48  H   ILE A   5      15.066 -14.934  -9.279  0.00  0.00    +0.150 HD
ATOM     49  O   ASN A   4      17.909 -16.027 -10.242  0.00  0.00    -0.273 OA
BRANCH  46  50
ATOM     50  CA  ASN A   4      16.735 -16.440  -8.224  0.00  0.00    +0.158 C 
BRANCH  50  52
ATOM     51  C   VAL A   3      16.260 -18.707  -8.899  0.00  0.00    +0.241 C 
ATOM     52  N   ASN A   4      17.088 -17.848  -8.345  0.00  0.00    -0.297 N 
ATOM     53  H   ASN A   4      18.007 -18.179  -7.988  0.00  0.00    +0.150 HD
ATOM     54  O   VAL A   3      15.126 -18.423  -9.268  0.00  0.00    -0.273 OA
BRANCH  51  55
ATOM     55  CA  VAL A   3      16.748 -20.140  -9.056  0.00  0.00    +0.149 C 
BRANCH  55  58
ATOM     56  C   PRO A   2      15.919 -22.241  -8.231  0.00  0.00    +0.241 C 
ATOM     57  O   PRO A   2      17.048 -22.564  -7.885  0.00  0.00    -0.273 OA
ATOM     58  N   VAL A   3      15.655 -21.065  -8.822  0.00  0.00    -0.297 N 
ATOM     59  H   VAL A   3      14.685 -20.821  -9.107  0.00  0.00    +0.150 HD
BRANCH  56  63
ATOM     60  C   THR A   1      13.045 -21.645  -7.268  0.00  0.00    +0.244 C 
ATOM     61  O   THR A   1      13.745 -21.504  -6.263  0.00  0.00    -0.273 OA
ATOM     62  N   PRO A   2      13.454 -22.461  -8.241  0.00  0.00    -0.272 N 
ATOM     63  CA  PRO A   2      14.730 -23.152  -8.036  0.00  0.00    +0.152 C 
ATOM     64  CB  PRO A   2      14.696 -24.206  -9.138  0.00  0.00    +0.031 C 
ATOM     65  CG  PRO A   2      13.816 -23.666 -10.213  0.00  0.00    +0.024 C 
ATOM     66  CD  PRO A   2      12.799 -22.792  -9.512  0.00  0.00    +0.094 C 
BRANCH  60  67
ATOM     67  CA  THR A   1      11.719 -20.910  -7.414  0.00  0.00    +0.172 C 
BRANCH  67  68
ATOM     68  N   THR A   1      11.037 -20.823  -6.147  0.00  0.00    -0.236 NA
ATOM     69  H   THR A   1      11.062 -19.934  -5.608  0.00  0.00    +0.142 HD
ENDBRANCH  67  68
BRANCH  67  70
ATOM     70  CB  THR A   1      11.962 -19.523  -8.008  0.00  0.00    +0.135 C 
ATOM     71  CG2 THR A   1      12.765 -18.610  -7.096  0.00  0.00    +0.034 C 
BRANCH  70  72
ATOM     72  OG1 THR A   1      12.743 -19.698  -9.181  0.00  0.00    -0.383 OA
ATOM     73  HG1 THR A   1      12.920 -18.815  -9.593  0.00  0.00    +0.210 HD
ENDBRANCH  70  72
ENDBRANCH  67  70
ENDBRANCH  60  67
ENDBRANCH  56  63
ENDBRANCH  55  58
BRANCH  55  74
ATOM     74  CB  VAL A   3      17.323 -20.300 -10.488  0.00  0.00    +0.027 C 
ATOM     75  CG2 VAL A   3      18.375 -19.260 -10.801  0.00  0.00    +0.002 C 
ATOM     76  CG1 VAL A   3      16.161 -20.227 -11.465  0.00  0.00    +0.002 C 
ENDBRANCH  55  74
ENDBRANCH  51  55
ENDBRANCH  50  52
BRANCH  50  77
ATOM     77  CB  ASN A   4      17.653 -15.713  -7.267  0.00  0.00    +0.114 C 
BRANCH  77  78
ATOM     78  CG  ASN A   4      17.464 -16.111  -5.819  0.00  0.00    +0.222 C 
ATOM     79  ND2 ASN A   4      18.571 -15.988  -5.090  0.00  0.00    -0.329 N 
ATOM     80 HD21 ASN A   4      18.554 -16.216  -4.076  0.00  0.00    +0.145 HD
ATOM     81 HD22 ASN A   4      19.453 -15.663  -5.535  0.00  0.00    +0.145 HD
ATOM     82  OD1 ASN A   4      16.366 -16.485  -5.401  0.00  0.00    -0.275 OA
ENDBRANCH  77  78
ENDBRANCH  50  77
ENDBRANCH  46  50
ENDBRANCH  45  47
BRANCH  45  83
ATOM     83  CB  ILE A   5      14.392 -15.159 -11.898  0.00  0.00    +0.027 C 
ATOM     84  CG2 ILE A   5      14.060 -14.531 -13.241  0.00  0.00    +0.002 C 
BRANCH  83  85
ATOM     85  CG1 ILE A   5      14.471 -16.685 -11.996  0.00  0.00    +0.002 C 
ATOM     86  CD1 ILE A   5      15.605 -17.076 -12.945  0.00  0.00    +0.000 C 
ENDBRANCH  83  85
ENDBRANCH  45  83
ENDBRANCH   1  45
TORSDOF 32
REMARK  Name = ../refined-set-2016/2pwr/2pwr_pocket.pdb
REMARK  237 active torsions:
REMARK  status: ('A' for Active; 'I' for Inactive)
REMARK    1  A    between atoms: _1  and  _3
REMARK    2  A    between atoms: _3  and  _4
REMARK    3  A    between atoms: _3  and  _6
REMARK    4  A    between atoms: _6  and  _7
REMARK    5  A    between atoms: _7  and  _8
REMARK    6  A    between atoms: _8  and  _9
REMARK    7  A    between atoms: _18  and  _20
REMARK    8  A    between atoms: _20  and  _21
REMARK    9  A    between atoms: _20  and  _23
REMARK   10  A    between atoms: _23  and  _24
REMARK   11  A    between atoms: _27  and  _29
REMARK   12  A    between atoms: _29  and  _30
REMARK   13  A    between atoms: _29  and  _32
REMARK   14  A    between atoms: _32  and  _33
REMARK   15  A    between atoms: _36  and  _38
REMARK   16  A    between atoms: _38  and  _39
REMARK   17  A    between atoms: _38  and  _41
REMARK   18  A    between atoms: _41  and  _42
REMARK   19  A    between atoms: _45  and  _47
REMARK   20  A    between atoms: _47  and  _48
REMARK   21  A    between atoms: _47  and  _50
REMARK   22  A    between atoms: _50  and  _51
REMARK   23  A    between atoms: _54  and  _56
REMARK   24  A    between atoms: _56  and  _57
REMARK   25  A    between atoms: _59  and  _61
REMARK   26  A    between atoms: _61  and  _62
REMARK   27  A    between atoms: _65  and  _67
REMARK   28  A    between atoms: _67  and  _68
REMARK   29  A    between atoms: _67  and  _70
REMARK   30  A    between atoms: _70  and  _71
REMARK   31  A    between atoms: _74  and  _76
REMARK   32  A    between atoms: _76  and  _77
REMARK   33  A    between atoms: _76  and  _79
REMARK   34  A    between atoms: _79  and  _80
REMARK   35  A    between atoms: _83  and  _85
REMARK   36  A    between atoms: _85  and  _86
REMARK   37  A    between atoms: _85  and  _88
REMARK   38  A    between atoms: _88  and  _89
REMARK   39  A    between atoms: _92  and  _94
REMARK   40  A    between atoms: _94  and  _95
REMARK   41  A    between atoms: _94  and  _97
REMARK   42  A    between atoms: _100  and  _102
REMARK   43  A    between atoms: _102  and  _103
REMARK   44  A    between atoms: _102  and  _105
REMARK   45  A    between atoms: _105  and  _106
REMARK   46  A    between atoms: _106  and  _107
REMARK   47  A    between atoms: _107  and  _108
REMARK   48  A    between atoms: _108  and  _109
REMARK   49  A    between atoms: _113  and  _115
REMARK   50  A    between atoms: _115  and  _116
REMARK   51  A    between atoms: _115  and  _118
REMARK   52  A    between atoms: _118  and  _119
REMARK   53  A    between atoms: _119  and  _120
REMARK   54  A    between atoms: _122  and  _124
REMARK   55  A    between atoms: _124  and  _125
REMARK   56  A    between atoms: _124  and  _127
REMARK   57  A    between atoms: _127  and  _128
REMARK   58  A    between atoms: _131  and  _133
REMARK   59  A    between atoms: _133  and  _134
REMARK   60  A    between atoms: _136  and  _138
REMARK   61  A    between atoms: _138  and  _139
REMARK   62  A    between atoms: _141  and  _143
REMARK   63  A    between atoms: _143  and  _144
REMARK   64  A    between atoms: _143  and  _146
REMARK   65  A    between atoms: _146  and  _147
REMARK   66  A    between atoms: _150  and  _152
REMARK   67  A    between atoms: _152  and  _153
REMARK   68  A    between atoms: _155  and  _157
REMARK   69  A    between atoms: _157  and  _158
REMARK   70  A    between atoms: _160  and  _162
REMARK   71  A    between atoms: _162  and  _163
REMARK   72  A    between atoms: _162  and  _165
REMARK   73  A    between atoms: _165  and  _166
REMARK   74  A    between atoms: _172  and  _174
REMARK   75  A    between atoms: _174  and  _175
REMARK   76  A    between atoms: _174  and  _177
REMARK   77  A    between atoms: _177  and  _178
REMARK   78  A    between atoms: _181  and  _183
REMARK   79  A    between atoms: _183  and  _184
REMARK   80  A    between atoms: _183  and  _186
REMARK   81  A    between atoms: _189  and  _191
REMARK   82  A    between atoms: _191  and  _192
REMARK   83  A    between atoms: _191  and  _194
REMARK   84  A    between atoms: _194  and  _195
REMARK   85  A    between atoms: _198  and  _200
REMARK   86  A    between atoms: _200  and  _201
REMARK   87  A    between atoms: _200  and  _203
REMARK   88  A    between atoms: _203  and  _204
REMARK   89  A    between atoms: _208  and  _209
REMARK   90  A    between atoms: _214  and  _216
REMARK   91  A    between atoms: _216  and  _217
REMARK   92  A    between atoms: _216  and  _219
REMARK   93  A    between atoms: _222  and  _224
REMARK   94  A    between atoms: _224  and  _225
REMARK   95  A    between atoms: _224  and  _227
REMARK   96  A    between atoms: _227  and  _228
REMARK   97  A    between atoms: _233  and  _235
REMARK   98  A    between atoms: _235  and  _236
REMARK   99  A    between atoms: _235  and  _238
REMARK  100  A    between atoms: _238  and  _239
REMARK  101  A    between atoms: _242  and  _244
REMARK  102  A    between atoms: _244  and  _245
REMARK  103  A    between atoms: _244  and  _247
REMARK  104  A    between atoms: _247  and  _248
REMARK  105  A    between atoms: _251  and  _253
REMARK  106  A    between atoms: _253  and  _254
REMARK  107  A    between atoms: _256  and  _258
REMARK  108  A    between atoms: _258  and  _259
REMARK  109  A    between atoms: _258  and  _261
REMARK  110  A    between atoms: _261  and  _262
REMARK  111  A    between atoms: _262  and  _263
REMARK  112  A    between atoms: _263  and  _264
REMARK  113  A    between atoms: _273  and  _275
REMARK  114  A    between atoms: _275  and  _276
REMARK  115  A    between atoms: _275  and  _278
REMARK  116  A    between atoms: _278  and  _279
REMARK  117  A    between atoms: _284  and  _286
REMARK  118  A    between atoms: _286  and  _287
REMARK  119  A    between atoms: _286  and  _289
REMARK  120  A    between atoms: _289  and  _290
REMARK  121  A    between atoms: _290  and  _291
REMARK  122  A    between atoms: _291  and  _292
REMARK  123  A    between atoms: _301  and  _303
REMARK  124  A    between atoms: _303  and  _304
REMARK  125  A    between atoms: _303  and  _306
REMARK  126  A    between atoms: _306  and  _307
REMARK  127  A    between atoms: _310  and  _312
REMARK  128  A    between atoms: _312  and  _313
REMARK  129  A    between atoms: _312  and  _315
REMARK  130  A    between atoms: _315  and  _316
REMARK  131  A    between atoms: _319  and  _321
REMARK  132  A    between atoms: _321  and  _322
REMARK  133  A    between atoms: _321  and  _324
REMARK  134  A    between atoms: _324  and  _325
REMARK  135  A    between atoms: _328  and  _330
REMARK  136  A    between atoms: _330  and  _331
REMARK  137  A    between atoms: _330  and  _333
REMARK  138  A    between atoms: _333  and  _334
REMARK  139  A    between atoms: _337  and  _339
REMARK  140  A    between atoms: _339  and  _340
REMARK  141  A    between atoms: _339  and  _342
REMARK  142  A    between atoms: _342  and  _343
REMARK  143  A    between atoms: _346  and  _348
REMARK  144  A    between atoms: _348  and  _349
REMARK  145  A    between atoms: _351  and  _353
REMARK  146  A    between atoms: _353  and  _354
REMARK  147  A    between atoms: _357  and  _359
REMARK  148  A    between atoms: _359  and  _360
REMARK  149  A    between atoms: _359  and  _362
REMARK  150  A    between atoms: _362  and  _363
REMARK  151  A    between atoms: _366  and  _368
REMARK  152  A    between atoms: _368  and  _369
REMARK  153  A    between atoms: _368  and  _371
REMARK  154  A    between atoms: _371  and  _372
REMARK  155  A    between atoms: _375  and  _377
REMARK  156  A    between atoms: _377  and  _378
REMARK  157  A    between atoms: _377  and  _380
REMARK  158  A    between atoms: _380  and  _381
REMARK  159  A    between atoms: _384  and  _386
REMARK  160  A    between atoms: _386  and  _387
REMARK  161  A    between atoms: _386  and  _389
REMARK  162  A    between atoms: _392  and  _394
REMARK  163  A    between atoms: _394  and  _395
REMARK  164  A    between atoms: _394  and  _397
REMARK  165  A    between atoms: _397  and  _398
REMARK  166  A    between atoms: _398  and  _399
REMARK  167  A    between atoms: _399  and  _400
REMARK  168  A    between atoms: _400  and  _401
REMARK  169  A    between atoms: _405  and  _407
REMARK  170  A    between atoms: _407  and  _408
REMARK  171  A    between atoms: _407  and  _410
REMARK  172  A    between atoms: _410  and  _411
REMARK  173  A    between atoms: _411  and  _412
REMARK  174  A    between atoms: _414  and  _416
REMARK  175  A    between atoms: _416  and  _417
REMARK  176  A    between atoms: _416  and  _419
REMARK  177  A    between atoms: _419  and  _420
REMARK  178  A    between atoms: _423  and  _425
REMARK  179  A    between atoms: _425  and  _426
REMARK  180  A    between atoms: _428  and  _430
REMARK  181  A    between atoms: _430  and  _431
REMARK  182  A    between atoms: _433  and  _435
REMARK  183  A    between atoms: _435  and  _436
REMARK  184  A    between atoms: _435  and  _438
REMARK  185  A    between atoms: _438  and  _439
REMARK  186  A    between atoms: _442  and  _444
REMARK  187  A    between atoms: _444  and  _445
REMARK  188  A    between atoms: _447  and  _449
REMARK  189  A    between atoms: _449  and  _450
REMARK  190  A    between atoms: _452  and  _454
REMARK  191  A    between atoms: _454  and  _455
REMARK  192  A    between atoms: _454  and  _457
REMARK  193  A    between atoms: _457  and  _458
REMARK  194  A    between atoms: _464  and  _466
REMARK  195  A    between atoms: _466  and  _467
REMARK  196  A    between atoms: _466  and  _469
REMARK  197  A    between atoms: _469  and  _470
REMARK  198  A    between atoms: _473  and  _475
REMARK  199  A    between atoms: _475  and  _476
REMARK  200  A    between atoms: _475  and  _478
REMARK  201  A    between atoms: _481  and  _483
REMARK  202  A    between atoms: _483  and  _484
REMARK  203  A    between atoms: _483  and  _486
REMARK  204  A    between atoms: _486  and  _487
REMARK  205  A    between atoms: _491  and  _492
REMARK  206  A    between atoms: _497  and  _499
REMARK  207  A    between atoms: _499  and  _500
REMARK  208  A    between atoms: _499  and  _502
REMARK  209  A    between atoms: _502  and  _503
REMARK  210  A    between atoms: _507  and  _508
REMARK  211  A    between atoms: _513  and  _515
REMARK  212  A    between atoms: _515  and  _516
REMARK  213  A    between atoms: _515  and  _518
REMARK  214  A    between atoms: _521  and  _523
REMARK  215  A    between atoms: _523  and  _524
REMARK  216  A    between atoms: _523  and  _526
REMARK  217  A    between atoms: _526  and  _527
REMARK  218  A    between atoms: _532  and  _534
REMARK  219  A    between atoms: _534  and  _535
REMARK  220  A    between atoms: _534  and  _537
REMARK  221  A    between atoms: _537  and  _538
REMARK  222  A    between atoms: _541  and  _543
REMARK  223  A    between atoms: _543  and  _544
REMARK  224  A    between atoms: _543  and  _546
REMARK  225  A    between atoms: _546  and  _547
REMARK  226  A    between atoms: _550  and  _552
REMARK  227  A    between atoms: _552  and  _553
REMARK  228  A    between atoms: _555  and  _557
REMARK  229  A    between atoms: _557  and  _558
REMARK  230  A    between atoms: _557  and  _560
REMARK  231  A    between atoms: _560  and  _561
REMARK  232  A    between atoms: _561  and  _562
REMARK  233  A    between atoms: _562  and  _563
REMARK  234  A    between atoms: _572  and  _574
REMARK  235  A    between atoms: _574  and  _575
REMARK  236  A    between atoms: _574  and  _577
REMARK  237  A    between atoms: _577  and  _578
REMARK                            x       y       z     vdW  Elec       q    Type
REMARK                         _______ _______ _______ _____ _____    ______ ____
ROOT
ATOM      1  NE  ARG A   1       6.309 -13.066 -22.161  0.00  0.00    -0.265 N 
ATOM      2  HE  ARG A   1       6.207 -12.454 -21.326  0.00  0.00    +0.259 HD
ATOM      3  CZ  ARG A   1       5.999 -14.355 -22.026  0.00  0.00    +0.342 C 
ATOM      4  NH2 ARG A   1       5.579 -14.802 -20.852  0.00  0.00    -0.292 N 
ATOM      5 HH21 ARG A   1       5.494 -14.149 -20.047  0.00  0.00    +0.255 HD
ATOM      6 HH22 ARG A   1       5.334 -15.806 -20.735  0.00  0.00    +0.255 HD
ATOM      7  NH1 ARG A   1       6.122 -15.198 -23.027  0.00  0.00    -0.292 N 
ATOM      8 HH11 ARG A   1       5.874 -16.199 -22.897  0.00  0.00    +0.255 HD
ATOM      9 HH12 ARG A   1       6.468 -14.863 -23.949  0.00  0.00    +0.255 HD
ENDROOT
BRANCH   1  10
ATOM     10  CD  ARG A   1       6.780 -12.455 -23.396  0.00  0.00    +0.174 C 
BRANCH  10  11
ATOM     11  CG  ARG A   1       7.499 -11.125 -23.183  0.00  0.00    +0.045 C 
BRANCH  11  12
ATOM     12  CB  ARG A   1       8.186 -10.761 -24.497  0.00  0.00    +0.029 C 
BRANCH  12  13
ATOM     13  CA  ARG A   1       9.165  -9.611 -24.354  0.00  0.00    +0.133 C 
BRANCH  13  14
ATOM     14  N   ARG A   1       8.464  -8.373 -24.170  0.00  0.00    -0.239 NA
ATOM     15  H   ARG A   1       7.424  -8.369 -24.153  0.00  0.00    +0.142 HD
ENDBRANCH  13  14
BRANCH  13  16
ATOM     16  C   ARG A   1      10.003  -9.545 -25.623  0.00  0.00    +0.224 C 
ATOM     17  O   ARG A   1       9.546  -9.124 -26.673  0.00  0.00    -0.287 OA
ENDBRANCH  13  16
ENDBRANCH  12  13
ENDBRANCH  11  12
ENDBRANCH  10  11
ENDBRANCH   1  10
TORSDOF 6
REMARK  Name = ../refined-set-2016/2pwr/2pwr_pocket.pdb
REMARK  237 active torsions:
REMARK  status: ('A' for Active; 'I' for Inactive)
REMARK    1  A    between atoms: _1  and  _3
REMARK    2  A    between atoms: _3  and  _4
REMARK    3  A    between atoms: _3  and  _6
REMARK    4  A    between atoms: _6  and  _7
REMARK    5  A    between atoms: _7  and  _8
REMARK    6  A    between atoms: _8  and  _9
REMARK    7  A    between atoms: _18  and  _20
REMARK    8  A    between atoms: _20  and  _21
REMARK    9  A    between atoms: _20  and  _23
REMARK   10  A    between atoms: _23  and  _24
REMARK   11  A    between atoms: _27  and  _29
REMARK   12  A    between atoms: _29  and  _30
REMARK   13  A    between atoms: _29  and  _32
REMARK   14  A    between atoms: _32  and  _33
REMARK   15  A    between atoms: _36  and  _38
REMARK   16  A    between atoms: _38  and  _39
REMARK   17  A    between atoms: _38  and  _41
REMARK   18  A    between atoms: _41  and  _42
REMARK   19  A    between atoms: _45  and  _47
REMARK   20  A    between atoms: _47  and  _48
REMARK   21  A    between atoms: _47  and  _50
REMARK   22  A    between atoms: _50  and  _51
REMARK   23  A    between atoms: _54  and  _56
REMARK   24  A    between atoms: _56  and  _57
REMARK   25  A    between atoms: _59  and  _61
REMARK   26  A    between atoms: _61  and  _62
REMARK   27  A    between atoms: _65  and  _67
REMARK   28  A    between atoms: _67  and  _68
REMARK   29  A    between atoms: _67  and  _70
REMARK   30  A    between atoms: _70  and  _71
REMARK   31  A    between atoms: _74  and  _76
REMARK   32  A    between atoms: _76  and  _77
REMARK   33  A    between atoms: _76  and  _79
REMARK   34  A    between atoms: _79  and  _80
REMARK   35  A    between atoms: _83  and  _85
REMARK   36  A    between atoms: _85  and  _86
REMARK   37  A    between atoms: _85  and  _88
REMARK   38  A    between atoms: _88  and  _89
REMARK   39  A    between atoms: _92  and  _94
REMARK   40  A    between atoms: _94  and  _95
REMARK   41  A    between atoms: _94  and  _97
REMARK   42  A    between atoms: _100  and  _102
REMARK   43  A    between atoms: _102  and  _103
REMARK   44  A    between atoms: _102  and  _105
REMARK   45  A    between atoms: _105  and  _106
REMARK   46  A    between atoms: _106  and  _107
REMARK   47  A    between atoms: _107  and  _108
REMARK   48  A    between atoms: _108  and  _109
REMARK   49  A    between atoms: _113  and  _115
REMARK   50  A    between atoms: _115  and  _116
REMARK   51  A    between atoms: _115  and  _118
REMARK   52  A    between atoms: _118  and  _119
REMARK   53  A    between atoms: _119  and  _120
REMARK   54  A    between atoms: _122  and  _124
REMARK   55  A    between atoms: _124  and  _125
REMARK   56  A    between atoms: _124  and  _127
REMARK   57  A    between atoms: _127  and  _128
REMARK   58  A    between atoms: _131  and  _133
REMARK   59  A    between atoms: _133  and  _134
REMARK   60  A    between atoms: _136  and  _138
REMARK   61  A    between atoms: _138  and  _139
REMARK   62  A    between atoms: _141  and  _143
REMARK   63  A    between atoms: _143  and  _144
REMARK   64  A    between atoms: _143  and  _146
REMARK   65  A    between atoms: _146  and  _147
REMARK   66  A    between atoms: _150  and  _152
REMARK   67  A    between atoms: _152  and  _153
REMARK   68  A    between atoms: _155  and  _157
REMARK   69  A    between atoms: _157  and  _158
REMARK   70  A    between atoms: _160  and  _162
REMARK   71  A    between atoms: _162  and  _163
REMARK   72  A    between atoms: _162  and  _165
REMARK   73  A    between atoms: _165  and  _166
REMARK   74  A    between atoms: _172  and  _174
REMARK   75  A    between atoms: _174  and  _175
REMARK   76  A    between atoms: _174  and  _177
REMARK   77  A    between atoms: _177  and  _178
REMARK   78  A    between atoms: _181  and  _183
REMARK   79  A    between atoms: _183  and  _184
REMARK   80  A    between atoms: _183  and  _186
REMARK   81  A    between atoms: _189  and  _191
REMARK   82  A    between atoms: _191  and  _192
REMARK   83  A    between atoms: _191  and  _194
REMARK   84  A    between atoms: _194  and  _195
REMARK   85  A    between atoms: _198  and  _200
REMARK   86  A    between atoms: _200  and  _201
REMARK   87  A    between atoms: _200  and  _203
REMARK   88  A    between atoms: _203  and  _204
REMARK   89  A    between atoms: _208  and  _209
REMARK   90  A    between atoms: _214  and  _216
REMARK   91  A    between atoms: _216  and  _217
REMARK   92  A    between atoms: _216  and  _219
REMARK   93  A    between atoms: _222  and  _224
REMARK   94  A    between atoms: _224  and  _225
REMARK   95  A    between atoms: _224  and  _227
REMARK   96  A    between atoms: _227  and  _228
REMARK   97  A    between atoms: _233  and  _235
REMARK   98  A    between atoms: _235  and  _236
REMARK   99  A    between atoms: _235  and  _238
REMARK  100  A    between atoms: _238  and  _239
REMARK  101  A    between atoms: _242  and  _244
REMARK  102  A    between atoms: _244  and  _245
REMARK  103  A    between atoms: _244  and  _247
REMARK  104  A    between atoms: _247  and  _248
REMARK  105  A    between atoms: _251  and  _253
REMARK  106  A    between atoms: _253  and  _254
REMARK  107  A    between atoms: _256  and  _258
REMARK  108  A    between atoms: _258  and  _259
REMARK  109  A    between atoms: _258  and  _261
REMARK  110  A    between atoms: _261  and  _262
REMARK  111  A    between atoms: _262  and  _263
REMARK  112  A    between atoms: _263  and  _264
REMARK  113  A    between atoms: _273  and  _275
REMARK  114  A    between atoms: _275  and  _276
REMARK  115  A    between atoms: _275  and  _278
REMARK  116  A    between atoms: _278  and  _279
REMARK  117  A    between atoms: _284  and  _286
REMARK  118  A    between atoms: _286  and  _287
REMARK  119  A    between atoms: _286  and  _289
REMARK  120  A    between atoms: _289  and  _290
REMARK  121  A    between atoms: _290  and  _291
REMARK  122  A    between atoms: _291  and  _292
REMARK  123  A    between atoms: _301  and  _303
REMARK  124  A    between atoms: _303  and  _304
REMARK  125  A    between atoms: _303  and  _306
REMARK  126  A    between atoms: _306  and  _307
REMARK  127  A    between atoms: _310  and  _312
REMARK  128  A    between atoms: _312  and  _313
REMARK  129  A    between atoms: _312  and  _315
REMARK  130  A    between atoms: _315  and  _316
REMARK  131  A    between atoms: _319  and  _321
REMARK  132  A    between atoms: _321  and  _322
REMARK  133  A    between atoms: _321  and  _324
REMARK  134  A    between atoms: _324  and  _325
REMARK  135  A    between atoms: _328  and  _330
REMARK  136  A    between atoms: _330  and  _331
REMARK  137  A    between atoms: _330  and  _333
REMARK  138  A    between atoms: _333  and  _334
REMARK  139  A    between atoms: _337  and  _339
REMARK  140  A    between atoms: _339  and  _340
REMARK  141  A    between atoms: _339  and  _342
REMARK  142  A    between atoms: _342  and  _343
REMARK  143  A    between atoms: _346  and  _348
REMARK  144  A    between atoms: _348  and  _349
REMARK  145  A    between atoms: _351  and  _353
REMARK  146  A    between atoms: _353  and  _354
REMARK  147  A    between atoms: _357  and  _359
REMARK  148  A    between atoms: _359  and  _360
REMARK  149  A    between atoms: _359  and  _362
REMARK  150  A    between atoms: _362  and  _363
REMARK  151  A    between atoms: _366  and  _368
REMARK  152  A    between atoms: _368  and  _369
REMARK  153  A    between atoms: _368  and  _371
REMARK  154  A    between atoms: _371  and  _372
REMARK  155  A    between atoms: _375  and  _377
REMARK  156  A    between atoms: _377  and  _378
REMARK  157  A    between atoms: _377  and  _380
REMARK  158  A    between atoms: _380  and  _381
REMARK  159  A    between atoms: _384  and  _386
REMARK  160  A    between atoms: _386  and  _387
REMARK  161  A    between atoms: _386  and  _389
REMARK  162  A    between atoms: _392  and  _394
REMARK  163  A    between atoms: _394  and  _395
REMARK  164  A    between atoms: _394  and  _397
REMARK  165  A    between atoms: _397  and  _398
REMARK  166  A    between atoms: _398  and  _399
REMARK  167  A    between atoms: _399  and  _400
REMARK  168  A    between atoms: _400  and  _401
REMARK  169  A    between atoms: _405  and  _407
REMARK  170  A    between atoms: _407  and  _408
REMARK  171  A    between atoms: _407  and  _410
REMARK  172  A    between atoms: _410  and  _411
REMARK  173  A    between atoms: _411  and  _412
REMARK  174  A    between atoms: _414  and  _416
REMARK  175  A    between atoms: _416  and  _417
REMARK  176  A    between atoms: _416  and  _419
REMARK  177  A    between atoms: _419  and  _420
REMARK  178  A    between atoms: _423  and  _425
REMARK  179  A    between atoms: _425  and  _426
REMARK  180  A    between atoms: _428  and  _430
REMARK  181  A    between atoms: _430  and  _431
REMARK  182  A    between atoms: _433  and  _435
REMARK  183  A    between atoms: _435  and  _436
REMARK  184  A    between atoms: _435  and  _438
REMARK  185  A    between atoms: _438  and  _439
REMARK  186  A    between atoms: _442  and  _444
REMARK  187  A    between atoms: _444  and  _445
REMARK  188  A    between atoms: _447  and  _449
REMARK  189  A    between atoms: _449  and  _450
REMARK  190  A    between atoms: _452  and  _454
REMARK  191  A    between atoms: _454  and  _455
REMARK  192  A    between atoms: _454  and  _457
REMARK  193  A    between atoms: _457  and  _458
REMARK  194  A    between atoms: _464  and  _466
REMARK  195  A    between atoms: _466  and  _467
REMARK  196  A    between atoms: _466  and  _469
REMARK  197  A    between atoms: _469  and  _470
REMARK  198  A    between atoms: _473  and  _475
REMARK  199  A    between atoms: _475  and  _476
REMARK  200  A    between atoms: _475  and  _478
REMARK  201  A    between atoms: _481  and  _483
REMARK  202  A    between atoms: _483  and  _484
REMARK  203  A    between atoms: _483  and  _486
REMARK  204  A    between atoms: _486  and  _487
REMARK  205  A    between atoms: _491  and  _492
REMARK  206  A    between atoms: _497  and  _499
REMARK  207  A    between atoms: _499  and  _500
REMARK  208  A    between atoms: _499  and  _502
REMARK  209  A    between atoms: _502  and  _503
REMARK  210  A    between atoms: _507  and  _508
REMARK  211  A    between atoms: _513  and  _515
REMARK  212  A    between atoms: _515  and  _516
REMARK  213  A    between atoms: _515  and  _518
REMARK  214  A    between atoms: _521  and  _523
REMARK  215  A    between atoms: _523  and  _524
REMARK  216  A    between atoms: _523  and  _526
REMARK  217  A    between atoms: _526  and  _527
REMARK  218  A    between atoms: _532  and  _534
REMARK  219  A    between atoms: _534  and  _535
REMARK  220  A    between atoms: _534  and  _537
REMARK  221  A    between atoms: _537  and  _538
REMARK  222  A    between atoms: _541  and  _543
REMARK  223  A    between atoms: _543  and  _544
REMARK  224  A    between atoms: _543  and  _546
REMARK  225  A    between atoms: _546  and  _547
REMARK  226  A    between atoms: _550  and  _552
REMARK  227  A    between atoms: _552  and  _553
REMARK  228  A    between atoms: _555  and  _557
REMARK  229  A    between atoms: _557  and  _558
REMARK  230  A    between atoms: _557  and  _560
REMARK  231  A    between atoms: _560  and  _561
REMARK  232  A    between atoms: _561  and  _562
REMARK  233  A    between atoms: _562  and  _563
REMARK  234  A    between atoms: _572  and  _574
REMARK  235  A    between atoms: _574  and  _575
REMARK  236  A    between atoms: _574  and  _577
REMARK  237  A    between atoms: _577  and  _578
REMARK                            x       y       z     vdW  Elec       q    Type
REMARK                         _______ _______ _______ _____ _____    ______ ____
ROOT
ATOM      1  CA  LEU A   1      10.161 -11.987 -29.261  0.00  0.00    +0.133 C 
ENDROOT
BRANCH   1   2
ATOM      2  N   LEU A   1      10.687 -11.035 -28.314  0.00  0.00    -0.239 NA
ATOM      3  H   LEU A   1      10.131 -10.171 -28.152  0.00  0.00    +0.142 HD
ENDBRANCH   1   2
BRANCH   1   4
ATOM      4  C   LEU A   1      10.734 -11.619 -30.618  0.00  0.00    +0.224 C 
ATOM      5  O   LEU A   1      10.683 -10.468 -31.045  0.00  0.00    -0.287 OA
ENDBRANCH   1   4
BRANCH   1   6
ATOM      6  CB  LEU A   1       8.635 -11.947 -29.300  0.00  0.00    +0.025 C 
BRANCH   6   7
ATOM      7  CG  LEU A   1       7.996 -12.475 -28.029  0.00  0.00    +0.002 C 
ATOM      8  CD2 LEU A   1       8.157 -13.981 -27.935  0.00  0.00    +0.000 C 
ATOM      9  CD1 LEU A   1       6.509 -12.104 -27.990  0.00  0.00    +0.000 C 
ENDBRANCH   6   7
ENDBRANCH   1   6
TORSDOF 4
REMARK  Name = ../refined-set-2016/2pwr/2pwr_pocket.pdb
REMARK  237 active torsions:
REMARK  status: ('A' for Active; 'I' for Inactive)
REMARK    1  A    between atoms: _1  and  _3
REMARK    2  A    between atoms: _3  and  _4
REMARK    3  A    between atoms: _3  and  _6
REMARK    4  A    between atoms: _6  and  _7
REMARK    5  A    between atoms: _7  and  _8
REMARK    6  A    between atoms: _8  and  _9
REMARK    7  A    between atoms: _18  and  _20
REMARK    8  A    between atoms: _20  and  _21
REMARK    9  A    between atoms: _20  and  _23
REMARK   10  A    between atoms: _23  and  _24
REMARK   11  A    between atoms: _27  and  _29
REMARK   12  A    between atoms: _29  and  _30
REMARK   13  A    between atoms: _29  and  _32
REMARK   14  A    between atoms: _32  and  _33
REMARK   15  A    between atoms: _36  and  _38
REMARK   16  A    between atoms: _38  and  _39
REMARK   17  A    between atoms: _38  and  _41
REMARK   18  A    between atoms: _41  and  _42
REMARK   19  A    between atoms: _45  and  _47
REMARK   20  A    between atoms: _47  and  _48
REMARK   21  A    between atoms: _47  and  _50
REMARK   22  A    between atoms: _50  and  _51
REMARK   23  A    between atoms: _54  and  _56
REMARK   24  A    between atoms: _56  and  _57
REMARK   25  A    between atoms: _59  and  _61
REMARK   26  A    between atoms: _61  and  _62
REMARK   27  A    between atoms: _65  and  _67
REMARK   28  A    between atoms: _67  and  _68
REMARK   29  A    between atoms: _67  and  _70
REMARK   30  A    between atoms: _70  and  _71
REMARK   31  A    between atoms: _74  and  _76
REMARK   32  A    between atoms: _76  and  _77
REMARK   33  A    between atoms: _76  and  _79
REMARK   34  A    between atoms: _79  and  _80
REMARK   35  A    between atoms: _83  and  _85
REMARK   36  A    between atoms: _85  and  _86
REMARK   37  A    between atoms: _85  and  _88
REMARK   38  A    between atoms: _88  and  _89
REMARK   39  A    between atoms: _92  and  _94
REMARK   40  A    between atoms: _94  and  _95
REMARK   41  A    between atoms: _94  and  _97
REMARK   42  A    between atoms: _100  and  _102
REMARK   43  A    between atoms: _102  and  _103
REMARK   44  A    between atoms: _102  and  _105
REMARK   45  A    between atoms: _105  and  _106
REMARK   46  A    between atoms: _106  and  _107
REMARK   47  A    between atoms: _107  and  _108
REMARK   48  A    between atoms: _108  and  _109
REMARK   49  A    between atoms: _113  and  _115
REMARK   50  A    between atoms: _115  and  _116
REMARK   51  A    between atoms: _115  and  _118
REMARK   52  A    between atoms: _118  and  _119
REMARK   53  A    between atoms: _119  and  _120
REMARK   54  A    between atoms: _122  and  _124
REMARK   55  A    between atoms: _124  and  _125
REMARK   56  A    between atoms: _124  and  _127
REMARK   57  A    between atoms: _127  and  _128
REMARK   58  A    between atoms: _131  and  _133
REMARK   59  A    between atoms: _133  and  _134
REMARK   60  A    between atoms: _136  and  _138
REMARK   61  A    between atoms: _138  and  _139
REMARK   62  A    between atoms: _141  and  _143
REMARK   63  A    between atoms: _143  and  _144
REMARK   64  A    between atoms: _143  and  _146
REMARK   65  A    between atoms: _146  and  _147
REMARK   66  A    between atoms: _150  and  _152
REMARK   67  A    between atoms: _152  and  _153
REMARK   68  A    between atoms: _155  and  _157
REMARK   69  A    between atoms: _157  and  _158
REMARK   70  A    between atoms: _160  and  _162
REMARK   71  A    between atoms: _162  and  _163
REMARK   72  A    between atoms: _162  and  _165
REMARK   73  A    between atoms: _165  and  _166
REMARK   74  A    between atoms: _172  and  _174
REMARK   75  A    between atoms: _174  and  _175
REMARK   76  A    between atoms: _174  and  _177
REMARK   77  A    between atoms: _177  and  _178
REMARK   78  A    between atoms: _181  and  _183
REMARK   79  A    between atoms: _183  and  _184
REMARK   80  A    between atoms: _183  and  _186
REMARK   81  A    between atoms: _189  and  _191
REMARK   82  A    between atoms: _191  and  _192
REMARK   83  A    between atoms: _191  and  _194
REMARK   84  A    between atoms: _194  and  _195
REMARK   85  A    between atoms: _198  and  _200
REMARK   86  A    between atoms: _200  and  _201
REMARK   87  A    between atoms: _200  and  _203
REMARK   88  A    between atoms: _203  and  _204
REMARK   89  A    between atoms: _208  and  _209
REMARK   90  A    between atoms: _214  and  _216
REMARK   91  A    between atoms: _216  and  _217
REMARK   92  A    between atoms: _216  and  _219
REMARK   93  A    between atoms: _222  and  _224
REMARK   94  A    between atoms: _224  and  _225
REMARK   95  A    between atoms: _224  and  _227
REMARK   96  A    between atoms: _227  and  _228
REMARK   97  A    between atoms: _233  and  _235
REMARK   98  A    between atoms: _235  and  _236
REMARK   99  A    between atoms: _235  and  _238
REMARK  100  A    between atoms: _238  and  _239
REMARK  101  A    between atoms: _242  and  _244
REMARK  102  A    between atoms: _244  and  _245
REMARK  103  A    between atoms: _244  and  _247
REMARK  104  A    between atoms: _247  and  _248
REMARK  105  A    between atoms: _251  and  _253
REMARK  106  A    between atoms: _253  and  _254
REMARK  107  A    between atoms: _256  and  _258
REMARK  108  A    between atoms: _258  and  _259
REMARK  109  A    between atoms: _258  and  _261
REMARK  110  A    between atoms: _261  and  _262
REMARK  111  A    between atoms: _262  and  _263
REMARK  112  A    between atoms: _263  and  _264
REMARK  113  A    between atoms: _273  and  _275
REMARK  114  A    between atoms: _275  and  _276
REMARK  115  A    between atoms: _275  and  _278
REMARK  116  A    between atoms: _278  and  _279
REMARK  117  A    between atoms: _284  and  _286
REMARK  118  A    between atoms: _286  and  _287
REMARK  119  A    between atoms: _286  and  _289
REMARK  120  A    between atoms: _289  and  _290
REMARK  121  A    between atoms: _290  and  _291
REMARK  122  A    between atoms: _291  and  _292
REMARK  123  A    between atoms: _301  and  _303
REMARK  124  A    between atoms: _303  and  _304
REMARK  125  A    between atoms: _303  and  _306
REMARK  126  A    between atoms: _306  and  _307
REMARK  127  A    between atoms: _310  and  _312
REMARK  128  A    between atoms: _312  and  _313
REMARK  129  A    between atoms: _312  and  _315
REMARK  130  A    between atoms: _315  and  _316
REMARK  131  A    between atoms: _319  and  _321
REMARK  132  A    between atoms: _321  and  _322
REMARK  133  A    between atoms: _321  and  _324
REMARK  134  A    between atoms: _324  and  _325
REMARK  135  A    between atoms: _328  and  _330
REMARK  136  A    between atoms: _330  and  _331
REMARK  137  A    between atoms: _330  and  _333
REMARK  138  A    between atoms: _333  and  _334
REMARK  139  A    between atoms: _337  and  _339
REMARK  140  A    between atoms: _339  and  _340
REMARK  141  A    between atoms: _339  and  _342
REMARK  142  A    between atoms: _342  and  _343
REMARK  143  A    between atoms: _346  and  _348
REMARK  144  A    between atoms: _348  and  _349
REMARK  145  A    between atoms: _351  and  _353
REMARK  146  A    between atoms: _353  and  _354
REMARK  147  A    between atoms: _357  and  _359
REMARK  148  A    between atoms: _359  and  _360
REMARK  149  A    between atoms: _359  and  _362
REMARK  150  A    between atoms: _362  and  _363
REMARK  151  A    between atoms: _366  and  _368
REMARK  152  A    between atoms: _368  and  _369
REMARK  153  A    between atoms: _368  and  _371
REMARK  154  A    between atoms: _371  and  _372
REMARK  155  A    between atoms: _375  and  _377
REMARK  156  A    between atoms: _377  and  _378
REMARK  157  A    between atoms: _377  and  _380
REMARK  158  A    between atoms: _380  and  _381
REMARK  159  A    between atoms: _384  and  _386
REMARK  160  A    between atoms: _386  and  _387
REMARK  161  A    between atoms: _386  and  _389
REMARK  162  A    between atoms: _392  and  _394
REMARK  163  A    between atoms: _394  and  _395
REMARK  164  A    between atoms: _394  and  _397
REMARK  165  A    between atoms: _397  and  _398
REMARK  166  A    between atoms: _398  and  _399
REMARK  167  A    between atoms: _399  and  _400
REMARK  168  A    between atoms: _400  and  _401
REMARK  169  A    between atoms: _405  and  _407
REMARK  170  A    between atoms: _407  and  _408
REMARK  171  A    between atoms: _407  and  _410
REMARK  172  A    between atoms: _410  and  _411
REMARK  173  A    between atoms: _411  and  _412
REMARK  174  A    between atoms: _414  and  _416
REMARK  175  A    between atoms: _416  and  _417
REMARK  176  A    between atoms: _416  and  _419
REMARK  177  A    between atoms: _419  and  _420
REMARK  178  A    between atoms: _423  and  _425
REMARK  179  A    between atoms: _425  and  _426
REMARK  180  A    between atoms: _428  and  _430
REMARK  181  A    between atoms: _430  and  _431
REMARK  182  A    between atoms: _433  and  _435
REMARK  183  A    between atoms: _435  and  _436
REMARK  184  A    between atoms: _435  and  _438
REMARK  185  A    between atoms: _438  and  _439
REMARK  186  A    between atoms: _442  and  _444
REMARK  187  A    between atoms: _444  and  _445
REMARK  188  A    between atoms: _447  and  _449
REMARK  189  A    between atoms: _449  and  _450
REMARK  190  A    between atoms: _452  and  _454
REMARK  191  A    between atoms: _454  and  _455
REMARK  192  A    between atoms: _454  and  _457
REMARK  193  A    between atoms: _457  and  _458
REMARK  194  A    between atoms: _464  and  _466
REMARK  195  A    between atoms: _466  and  _467
REMARK  196  A    between atoms: _466  and  _469
REMARK  197  A    between atoms: _469  and  _470
REMARK  198  A    between atoms: _473  and  _475
REMARK  199  A    between atoms: _475  and  _476
REMARK  200  A    between atoms: _475  and  _478
REMARK  201  A    between atoms: _481  and  _483
REMARK  202  A    between atoms: _483  and  _484
REMARK  203  A    between atoms: _483  and  _486
REMARK  204  A    between atoms: _486  and  _487
REMARK  205  A    between atoms: _491  and  _492
REMARK  206  A    between atoms: _497  and  _499
REMARK  207  A    between atoms: _499  and  _500
REMARK  208  A    between atoms: _499  and  _502
REMARK  209  A    between atoms: _502  and  _503
REMARK  210  A    between atoms: _507  and  _508
REMARK  211  A    between atoms: _513  and  _515
REMARK  212  A    between atoms: _515  and  _516
REMARK  213  A    between atoms: _515  and  _518
REMARK  214  A    between atoms: _521  and  _523
REMARK  215  A    between atoms: _523  and  _524
REMARK  216  A    between atoms: _523  and  _526
REMARK  217  A    between atoms: _526  and  _527
REMARK  218  A    between atoms: _532  and  _534
REMARK  219  A    between atoms: _534  and  _535
REMARK  220  A    between atoms: _534  and  _537
REMARK  221  A    between atoms: _537  and  _538
REMARK  222  A    between atoms: _541  and  _543
REMARK  223  A    between atoms: _543  and  _544
REMARK  224  A    between atoms: _543  and  _546
REMARK  225  A    between atoms: _546  and  _547
REMARK  226  A    between atoms: _550  and  _552
REMARK  227  A    between atoms: _552  and  _553
REMARK  228  A    between atoms: _555  and  _557
REMARK  229  A    between atoms: _557  and  _558
REMARK  230  A    between atoms: _557  and  _560
REMARK  231  A    between atoms: _560  and  _561
REMARK  232  A    between atoms: _561  and  _562
REMARK  233  A    between atoms: _562  and  _563
REMARK  234  A    between atoms: _572  and  _574
REMARK  235  A    between atoms: _574  and  _575
REMARK  236  A    between atoms: _574  and  _577
REMARK  237  A    between atoms: _577  and  _578
REMARK                            x       y       z     vdW  Elec       q    Type
REMARK                         _______ _______ _______ _____ _____    ______ ____
ROOT
ATOM      1  C   GLY A   5      17.717 -19.038 -18.749  0.00  0.00    +0.243 C 
ATOM      2  O   GLY A   5      17.971 -19.968 -17.953  0.00  0.00    -0.273 OA
ATOM      3  N   ALA A   6      17.394 -19.294 -20.003  0.00  0.00    -0.297 N 
ATOM      4  H   ALA A   6      17.121 -18.505 -20.623  0.00  0.00    +0.150 HD
ENDROOT
BRANCH   3   5
ATOM      5  CA  ALA A   6      17.407 -20.646 -20.547  0.00  0.00    +0.149 C 
ATOM      6  CB  ALA A   6      16.419 -20.709 -21.697  0.00  0.00    +0.031 C 
BRANCH   5   7
ATOM      7  C   ALA A   6      18.784 -21.032 -21.051  0.00  0.00    +0.241 C 
ATOM      8  N   ASP A   7      19.323 -22.114 -20.507  0.00  0.00    -0.297 N 
ATOM      9  H   ASP A   7      18.822 -22.641 -19.763  0.00  0.00    +0.150 HD
ATOM     10  O   ALA A   6      19.386 -20.371 -21.890  0.00  0.00    -0.273 OA
BRANCH   8  11
ATOM     11  CA  ASP A   7      20.634 -22.550 -20.974  0.00  0.00    +0.160 C 
BRANCH  11  12
ATOM     12  C   ASP A   7      20.601 -23.030 -22.421  0.00  0.00    +0.241 C 
ATOM     13  N   ASP A   8      19.435 -23.573 -22.733  0.00  0.00    -0.297 N 
ATOM     14  H   ASP A   8      18.657 -23.507 -22.046  0.00  0.00    +0.150 HD
ATOM     15  O   ASP A   7      21.586 -22.962 -23.163  0.00  0.00    -0.273 OA
BRANCH  13  16
ATOM     16  CA  ASP A   8      19.192 -24.257 -23.990  0.00  0.00    +0.160 C 
BRANCH  16  17
ATOM     17  C   ASP A   8      18.127 -23.589 -24.810  0.00  0.00    +0.241 C 
ATOM     18  O   ASP A   8      17.488 -22.665 -24.367  0.00  0.00    -0.273 OA
ATOM     19  N   THR A   9      17.959 -24.117 -25.992  0.00  0.00    -0.295 N 
ATOM     20  H   THR A   9      18.579 -24.905 -26.268  0.00  0.00    +0.150 HD
BRANCH  19  21
ATOM     21  CA  THR A   9      16.959 -23.669 -26.943  0.00  0.00    +0.176 C 
BRANCH  21  22
ATOM     22  C   THR A   9      15.873 -24.731 -26.996  0.00  0.00    +0.243 C 
ATOM     23  N   VAL A  10      14.638 -24.346 -26.733  0.00  0.00    -0.298 N 
ATOM     24  H   VAL A  10      14.434 -23.338 -26.580  0.00  0.00    +0.150 HD
ATOM     25  O   THR A   9      16.191 -25.884 -27.230  0.00  0.00    -0.273 OA
BRANCH  23  26
ATOM     26  CA  VAL A  10      13.563 -25.315 -26.655  0.00  0.00    +0.137 C 
BRANCH  26  27
ATOM     27  CB  VAL A  10      13.033 -25.509 -25.218  0.00  0.00    +0.026 C 
ATOM     28  CG2 VAL A  10      14.130 -25.635 -24.183  0.00  0.00    +0.002 C 
ATOM     29  CG1 VAL A  10      12.109 -26.721 -25.214  0.00  0.00    +0.002 C 
ENDBRANCH  26  27
BRANCH  26  30
ATOM     30  C   VAL A  10      12.399 -24.768 -27.476  0.00  0.00    +0.227 C 
ATOM     31  O   VAL A  10      11.873 -23.697 -27.233  0.00  0.00    -0.286 OA
ENDBRANCH  26  30
ENDBRANCH  23  26
ENDBRANCH  21  22
BRANCH  21  32
ATOM     32  CB  THR A   9      17.607 -23.461 -28.298  0.00  0.00    +0.137 C 
ATOM     33  CG2 THR A   9      16.587 -23.209 -29.401  0.00  0.00    +0.034 C 
BRANCH  32  34
ATOM     34  OG1 THR A   9      18.426 -22.276 -28.178  0.00  0.00    -0.382 OA
ATOM     35  HG1 THR A   9      19.109 -22.418 -27.475  0.00  0.00    +0.210 HD
ENDBRANCH  32  34
ENDBRANCH  21  32
ENDBRANCH  19  21
ENDBRANCH  16  17
BRANCH  16  36
ATOM     36  CB  ASP A   8      18.779 -25.698 -23.653  0.00  0.00    +0.143 C 
BRANCH  36  37
ATOM     37  CG  ASP A   8      19.752 -26.343 -22.674  0.00  0.00    +0.367 C 
ATOM     38  OD2 ASP A   8      19.335 -26.555 -21.504  0.00  0.00    -0.246 OA
ATOM     39  OD1 ASP A   8      20.904 -26.597 -23.051  0.00  0.00    -0.246 OA
ENDBRANCH  36  37
ENDBRANCH  16  36
ENDBRANCH  13  16
ENDBRANCH  11  12
BRANCH  11  40
ATOM     40  CB  ASP A   7      21.099 -23.729 -20.128  0.00  0.00    +0.143 C 
BRANCH  40  41
ATOM     41  CG  ASP A   7      21.314 -23.445 -18.671  0.00  0.00    +0.367 C 
ATOM     42  OD2 ASP A   7      21.180 -24.406 -17.868  0.00  0.00    -0.246 OA
ATOM     43  OD1 ASP A   7      21.605 -22.310 -18.242  0.00  0.00    -0.246 OA
ENDBRANCH  40  41
ENDBRANCH  11  40
ENDBRANCH   8  11
ENDBRANCH   5   7
ENDBRANCH   3   5
BRANCH   1  44
ATOM     44  CA  GLY A   5      17.766 -17.606 -18.287  0.00  0.00    +0.176 C 
BRANCH  44  46
ATOM     45  C   THR A   4      19.009 -16.389 -19.981  0.00  0.00    +0.243 C 
ATOM     46  N   GLY A   5      17.860 -16.680 -19.408  0.00  0.00    -0.295 N 
ATOM     47  H   GLY A   5      16.991 -16.235 -19.767  0.00  0.00    +0.150 HD
ATOM     48  O   THR A   4      20.117 -16.785 -19.603  0.00  0.00    -0.273 OA
BRANCH  45  49
ATOM     49  CA  THR A   4      19.024 -15.516 -21.223  0.00  0.00    +0.176 C 
BRANCH  49  51
ATOM     50  C   ASP A   3      17.110 -16.324 -22.429  0.00  0.00    +0.241 C 
ATOM     51  N   THR A   4      17.694 -15.300 -21.794  0.00  0.00    -0.295 N 
ATOM     52  H   THR A   4      17.217 -14.380 -21.709  0.00  0.00    +0.150 HD
ATOM     53  O   ASP A   3      17.649 -17.418 -22.545  0.00  0.00    -0.273 OA
BRANCH  50  54
ATOM     54  CA  ASP A   3      15.740 -16.055 -23.021  0.00  0.00    +0.160 C 
BRANCH  54  57
ATOM     55  C   LEU A   2      15.375 -14.658 -24.964  0.00  0.00    +0.241 C 
ATOM     56  O   LEU A   2      14.997 -13.691 -24.303  0.00  0.00    -0.273 OA
ATOM     57  N   ASP A   3      15.856 -15.790 -24.448  0.00  0.00    -0.297 N 
ATOM     58  H   ASP A   3      16.316 -16.487 -25.068  0.00  0.00    +0.150 HD
BRANCH  55  59
ATOM     59  CA  LEU A   2      15.273 -14.622 -26.483  0.00  0.00    +0.149 C 
BRANCH  59  62
ATOM     60  C   LEU A   1      13.160 -15.702 -26.858  0.00  0.00    +0.238 C 
ATOM     61  O   LEU A   1      13.631 -16.815 -26.633  0.00  0.00    -0.274 OA
ATOM     62  N   LEU A   2      13.863 -14.584 -26.836  0.00  0.00    -0.297 N 
ATOM     63  H   LEU A   2      13.409 -13.678 -27.071  0.00  0.00    +0.150 HD
BRANCH  60  64
ATOM     64  CA  LEU A   1      11.665 -15.593 -27.092  0.00  0.00    +0.145 C 
BRANCH  64  65
ATOM     65  N   LEU A   1      11.206 -16.460 -28.149  0.00  0.00    -0.238 NA
ATOM     66  H   LEU A   1      10.930 -17.430 -27.895  0.00  0.00    +0.142 HD
ENDBRANCH  64  65
BRANCH  64  67
ATOM     67  CB  LEU A   1      10.930 -16.028 -25.822  0.00  0.00    +0.026 C 
BRANCH  67  68
ATOM     68  CG  LEU A   1      11.156 -15.218 -24.558  0.00  0.00    +0.002 C 
ATOM     69  CD2 LEU A   1      10.452 -15.899 -23.389  0.00  0.00    +0.000 C 
ATOM     70  CD1 LEU A   1      10.683 -13.781 -24.775  0.00  0.00    +0.000 C 
ENDBRANCH  67  68
ENDBRANCH  64  67
ENDBRANCH  60  64
ENDBRANCH  59  62
BRANCH  59  71
ATOM     71  CB  LEU A   2      15.986 -13.409 -27.038  0.00  0.00    +0.029 C 
BRANCH  71  72
ATOM     72  CG  LEU A   2      15.867 -13.198 -28.537  0.00  0.00    +0.002 C 
ATOM     73  CD2 LEU A   2      16.751 -12.030 -28.959  0.00  0.00    +0.000 C 
ATOM     74  CD1 LEU A   2      16.256 -14.458 -29.311  0.00  0.00    +0.000 C 
ENDBRANCH  71  72
ENDBRANCH  59  71
ENDBRANCH  55  59
ENDBRANCH  54  57
BRANCH  54  75
ATOM     75  CB  ASP A   3      14.780 -17.217 -22.826  0.00  0.00    +0.143 C 
BRANCH  75  76
ATOM     76  CG  ASP A   3      14.453 -17.503 -21.384  0.00  0.00    +0.367 C 
ATOM     77  OD2 ASP A   3      15.248 -17.134 -20.503  0.00  0.00    -0.246 OA
ATOM     78  OD1 ASP A   3      13.377 -18.071 -21.117  0.00  0.00    -0.246 OA
ENDBRANCH  75  76
ENDBRANCH  54  75
ENDBRANCH  50  54
ENDBRANCH  49  51
BRANCH  49  79
ATOM     79  CB  THR A   4      19.674 -14.174 -20.894  0.00  0.00    +0.137 C 
ATOM     80  CG2 THR A   4      19.862 -13.387 -22.182  0.00  0.00    +0.034 C 
BRANCH  79  81
ATOM     81  OG1 THR A   4      18.849 -13.411 -20.022  0.00  0.00    -0.382 OA
ATOM     82  HG1 THR A   4      18.708 -13.912 -19.180  0.00  0.00    +0.210 HD
ENDBRANCH  79  81
ENDBRANCH  49  79
ENDBRANCH  45  49
ENDBRANCH  44  46
ENDBRANCH   1  44
TORSDOF 35
REMARK  Name = ../refined-set-2016/2pwr/2pwr_pocket.pdb
REMARK  237 active torsions:
REMARK  status: ('A' for Active; 'I' for Inactive)
REMARK    1  A    between atoms: _1  and  _3
REMARK    2  A    between atoms: _3  and  _4
REMARK    3  A    between atoms: _3  and  _6
REMARK    4  A    between atoms: _6  and  _7
REMARK    5  A    between atoms: _7  and  _8
REMARK    6  A    between atoms: _8  and  _9
REMARK    7  A    between atoms: _18  and  _20
REMARK    8  A    between atoms: _20  and  _21
REMARK    9  A    between atoms: _20  and  _23
REMARK   10  A    between atoms: _23  and  _24
REMARK   11  A    between atoms: _27  and  _29
REMARK   12  A    between atoms: _29  and  _30
REMARK   13  A    between atoms: _29  and  _32
REMARK   14  A    between atoms: _32  and  _33
REMARK   15  A    between atoms: _36  and  _38
REMARK   16  A    between atoms: _38  and  _39
REMARK   17  A    between atoms: _38  and  _41
REMARK   18  A    between atoms: _41  and  _42
REMARK   19  A    between atoms: _45  and  _47
REMARK   20  A    between atoms: _47  and  _48
REMARK   21  A    between atoms: _47  and  _50
REMARK   22  A    between atoms: _50  and  _51
REMARK   23  A    between atoms: _54  and  _56
REMARK   24  A    between atoms: _56  and  _57
REMARK   25  A    between atoms: _59  and  _61
REMARK   26  A    between atoms: _61  and  _62
REMARK   27  A    between atoms: _65  and  _67
REMARK   28  A    between atoms: _67  and  _68
REMARK   29  A    between atoms: _67  and  _70
REMARK   30  A    between atoms: _70  and  _71
REMARK   31  A    between atoms: _74  and  _76
REMARK   32  A    between atoms: _76  and  _77
REMARK   33  A    between atoms: _76  and  _79
REMARK   34  A    between atoms: _79  and  _80
REMARK   35  A    between atoms: _83  and  _85
REMARK   36  A    between atoms: _85  and  _86
REMARK   37  A    between atoms: _85  and  _88
REMARK   38  A    between atoms: _88  and  _89
REMARK   39  A    between atoms: _92  and  _94
REMARK   40  A    between atoms: _94  and  _95
REMARK   41  A    between atoms: _94  and  _97
REMARK   42  A    between atoms: _100  and  _102
REMARK   43  A    between atoms: _102  and  _103
REMARK   44  A    between atoms: _102  and  _105
REMARK   45  A    between atoms: _105  and  _106
REMARK   46  A    between atoms: _106  and  _107
REMARK   47  A    between atoms: _107  and  _108
REMARK   48  A    between atoms: _108  and  _109
REMARK   49  A    between atoms: _113  and  _115
REMARK   50  A    between atoms: _115  and  _116
REMARK   51  A    between atoms: _115  and  _118
REMARK   52  A    between atoms: _118  and  _119
REMARK   53  A    between atoms: _119  and  _120
REMARK   54  A    between atoms: _122  and  _124
REMARK   55  A    between atoms: _124  and  _125
REMARK   56  A    between atoms: _124  and  _127
REMARK   57  A    between atoms: _127  and  _128
REMARK   58  A    between atoms: _131  and  _133
REMARK   59  A    between atoms: _133  and  _134
REMARK   60  A    between atoms: _136  and  _138
REMARK   61  A    between atoms: _138  and  _139
REMARK   62  A    between atoms: _141  and  _143
REMARK   63  A    between atoms: _143  and  _144
REMARK   64  A    between atoms: _143  and  _146
REMARK   65  A    between atoms: _146  and  _147
REMARK   66  A    between atoms: _150  and  _152
REMARK   67  A    between atoms: _152  and  _153
REMARK   68  A    between atoms: _155  and  _157
REMARK   69  A    between atoms: _157  and  _158
REMARK   70  A    between atoms: _160  and  _162
REMARK   71  A    between atoms: _162  and  _163
REMARK   72  A    between atoms: _162  and  _165
REMARK   73  A    between atoms: _165  and  _166
REMARK   74  A    between atoms: _172  and  _174
REMARK   75  A    between atoms: _174  and  _175
REMARK   76  A    between atoms: _174  and  _177
REMARK   77  A    between atoms: _177  and  _178
REMARK   78  A    between atoms: _181  and  _183
REMARK   79  A    between atoms: _183  and  _184
REMARK   80  A    between atoms: _183  and  _186
REMARK   81  A    between atoms: _189  and  _191
REMARK   82  A    between atoms: _191  and  _192
REMARK   83  A    between atoms: _191  and  _194
REMARK   84  A    between atoms: _194  and  _195
REMARK   85  A    between atoms: _198  and  _200
REMARK   86  A    between atoms: _200  and  _201
REMARK   87  A    between atoms: _200  and  _203
REMARK   88  A    between atoms: _203  and  _204
REMARK   89  A    between atoms: _208  and  _209
REMARK   90  A    between atoms: _214  and  _216
REMARK   91  A    between atoms: _216  and  _217
REMARK   92  A    between atoms: _216  and  _219
REMARK   93  A    between atoms: _222  and  _224
REMARK   94  A    between atoms: _224  and  _225
REMARK   95  A    between atoms: _224  and  _227
REMARK   96  A    between atoms: _227  and  _228
REMARK   97  A    between atoms: _233  and  _235
REMARK   98  A    between atoms: _235  and  _236
REMARK   99  A    between atoms: _235  and  _238
REMARK  100  A    between atoms: _238  and  _239
REMARK  101  A    between atoms: _242  and  _244
REMARK  102  A    between atoms: _244  and  _245
REMARK  103  A    between atoms: _244  and  _247
REMARK  104  A    between atoms: _247  and  _248
REMARK  105  A    between atoms: _251  and  _253
REMARK  106  A    between atoms: _253  and  _254
REMARK  107  A    between atoms: _256  and  _258
REMARK  108  A    between atoms: _258  and  _259
REMARK  109  A    between atoms: _258  and  _261
REMARK  110  A    between atoms: _261  and  _262
REMARK  111  A    between atoms: _262  and  _263
REMARK  112  A    between atoms: _263  and  _264
REMARK  113  A    between atoms: _273  and  _275
REMARK  114  A    between atoms: _275  and  _276
REMARK  115  A    between atoms: _275  and  _278
REMARK  116  A    between atoms: _278  and  _279
REMARK  117  A    between atoms: _284  and  _286
REMARK  118  A    between atoms: _286  and  _287
REMARK  119  A    between atoms: _286  and  _289
REMARK  120  A    between atoms: _289  and  _290
REMARK  121  A    between atoms: _290  and  _291
REMARK  122  A    between atoms: _291  and  _292
REMARK  123  A    between atoms: _301  and  _303
REMARK  124  A    between atoms: _303  and  _304
REMARK  125  A    between atoms: _303  and  _306
REMARK  126  A    between atoms: _306  and  _307
REMARK  127  A    between atoms: _310  and  _312
REMARK  128  A    between atoms: _312  and  _313
REMARK  129  A    between atoms: _312  and  _315
REMARK  130  A    between atoms: _315  and  _316
REMARK  131  A    between atoms: _319  and  _321
REMARK  132  A    between atoms: _321  and  _322
REMARK  133  A    between atoms: _321  and  _324
REMARK  134  A    between atoms: _324  and  _325
REMARK  135  A    between atoms: _328  and  _330
REMARK  136  A    between atoms: _330  and  _331
REMARK  137  A    between atoms: _330  and  _333
REMARK  138  A    between atoms: _333  and  _334
REMARK  139  A    between atoms: _337  and  _339
REMARK  140  A    between atoms: _339  and  _340
REMARK  141  A    between atoms: _339  and  _342
REMARK  142  A    between atoms: _342  and  _343
REMARK  143  A    between atoms: _346  and  _348
REMARK  144  A    between atoms: _348  and  _349
REMARK  145  A    between atoms: _351  and  _353
REMARK  146  A    between atoms: _353  and  _354
REMARK  147  A    between atoms: _357  and  _359
REMARK  148  A    between atoms: _359  and  _360
REMARK  149  A    between atoms: _359  and  _362
REMARK  150  A    between atoms: _362  and  _363
REMARK  151  A    between atoms: _366  and  _368
REMARK  152  A    between atoms: _368  and  _369
REMARK  153  A    between atoms: _368  and  _371
REMARK  154  A    between atoms: _371  and  _372
REMARK  155  A    between atoms: _375  and  _377
REMARK  156  A    between atoms: _377  and  _378
REMARK  157  A    between atoms: _377  and  _380
REMARK  158  A    between atoms: _380  and  _381
REMARK  159  A    between atoms: _384  and  _386
REMARK  160  A    between atoms: _386  and  _387
REMARK  161  A    between atoms: _386  and  _389
REMARK  162  A    between atoms: _392  and  _394
REMARK  163  A    between atoms: _394  and  _395
REMARK  164  A    between atoms: _394  and  _397
REMARK  165  A    between atoms: _397  and  _398
REMARK  166  A    between atoms: _398  and  _399
REMARK  167  A    between atoms: _399  and  _400
REMARK  168  A    between atoms: _400  and  _401
REMARK  169  A    between atoms: _405  and  _407
REMARK  170  A    between atoms: _407  and  _408
REMARK  171  A    between atoms: _407  and  _410
REMARK  172  A    between atoms: _410  and  _411
REMARK  173  A    between atoms: _411  and  _412
REMARK  174  A    between atoms: _414  and  _416
REMARK  175  A    between atoms: _416  and  _417
REMARK  176  A    between atoms: _416  and  _419
REMARK  177  A    between atoms: _419  and  _420
REMARK  178  A    between atoms: _423  and  _425
REMARK  179  A    between atoms: _425  and  _426
REMARK  180  A    between atoms: _428  and  _430
REMARK  181  A    between atoms: _430  and  _431
REMARK  182  A    between atoms: _433  and  _435
REMARK  183  A    between atoms: _435  and  _436
REMARK  184  A    between atoms: _435  and  _438
REMARK  185  A    between atoms: _438  and  _439
REMARK  186  A    between atoms: _442  and  _444
REMARK  187  A    between atoms: _444  and  _445
REMARK  188  A    between atoms: _447  and  _449
REMARK  189  A    between atoms: _449  and  _450
REMARK  190  A    between atoms: _452  and  _454
REMARK  191  A    between atoms: _454  and  _455
REMARK  192  A    between atoms: _454  and  _457
REMARK  193  A    between atoms: _457  and  _458
REMARK  194  A    between atoms: _464  and  _466
REMARK  195  A    between atoms: _466  and  _467
REMARK  196  A    between atoms: _466  and  _469
REMARK  197  A    between atoms: _469  and  _470
REMARK  198  A    between atoms: _473  and  _475
REMARK  199  A    between atoms: _475  and  _476
REMARK  200  A    between atoms: _475  and  _478
REMARK  201  A    between atoms: _481  and  _483
REMARK  202  A    between atoms: _483  and  _484
REMARK  203  A    between atoms: _483  and  _486
REMARK  204  A    between atoms: _486  and  _487
REMARK  205  A    between atoms: _491  and  _492
REMARK  206  A    between atoms: _497  and  _499
REMARK  207  A    between atoms: _499  and  _500
REMARK  208  A    between atoms: _499  and  _502
REMARK  209  A    between atoms: _502  and  _503
REMARK  210  A    between atoms: _507  and  _508
REMARK  211  A    between atoms: _513  and  _515
REMARK  212  A    between atoms: _515  and  _516
REMARK  213  A    between atoms: _515  and  _518
REMARK  214  A    between atoms: _521  and  _523
REMARK  215  A    between atoms: _523  and  _524
REMARK  216  A    between atoms: _523  and  _526
REMARK  217  A    between atoms: _526  and  _527
REMARK  218  A    between atoms: _532  and  _534
REMARK  219  A    between atoms: _534  and  _535
REMARK  220  A    between atoms: _534  and  _537
REMARK  221  A    between atoms: _537  and  _538
REMARK  222  A    between atoms: _541  and  _543
REMARK  223  A    between atoms: _543  and  _544
REMARK  224  A    between atoms: _543  and  _546
REMARK  225  A    between atoms: _546  and  _547
REMARK  226  A    between atoms: _550  and  _552
REMARK  227  A    between atoms: _552  and  _553
REMARK  228  A    between atoms: _555  and  _557
REMARK  229  A    between atoms: _557  and  _558
REMARK  230  A    between atoms: _557  and  _560
REMARK  231  A    between atoms: _560  and  _561
REMARK  232  A    between atoms: _561  and  _562
REMARK  233  A    between atoms: _562  and  _563
REMARK  234  A    between atoms: _572  and  _574
REMARK  235  A    between atoms: _574  and  _575
REMARK  236  A    between atoms: _574  and  _577
REMARK  237  A    between atoms: _577  and  _578
REMARK                            x       y       z     vdW  Elec       q    Type
REMARK                         _______ _______ _______ _____ _____    ______ ____
ROOT
ATOM      1  C   GLY A   5      11.692 -24.821 -13.903  0.00  0.00    +0.243 C 
ATOM      2  O   GLY A   5      11.937 -25.390 -12.840  0.00  0.00    -0.273 OA
ATOM      3  N   ILE A   6      10.911 -23.758 -13.983  0.00  0.00    -0.297 N 
ATOM      4  H   ILE A   6      10.699 -23.320 -14.902  0.00  0.00    +0.150 HD
ENDROOT
BRANCH   3   5
ATOM      5  CA  ILE A   6      10.364 -23.225 -12.770  0.00  0.00    +0.149 C 
BRANCH   5   6
ATOM      6  C   ILE A   6       9.554 -24.242 -11.975  0.00  0.00    +0.241 C 
ATOM      7  O   ILE A   6       9.617 -24.248 -10.746  0.00  0.00    -0.273 OA
ATOM      8  N   GLY A   7       8.845 -25.155 -12.639  0.00  0.00    -0.295 N 
ATOM      9  H   GLY A   7       8.870 -25.202 -13.678  0.00  0.00    +0.150 HD
BRANCH   8  10
ATOM     10  CA  GLY A   7       8.030 -26.089 -11.860  0.00  0.00    +0.176 C 
BRANCH  10  11
ATOM     11  C   GLY A   7       8.654 -27.449 -11.652  0.00  0.00    +0.243 C 
ATOM     12  O   GLY A   7       8.138 -28.337 -10.970  0.00  0.00    -0.273 OA
ATOM     13  N   GLY A   8       9.816 -27.658 -12.222  0.00  0.00    -0.295 N 
ATOM     14  H   GLY A   8      10.237 -26.905 -12.802  0.00  0.00    +0.150 HD
BRANCH  13  15
ATOM     15  CA  GLY A   8      10.536 -28.920 -12.065  0.00  0.00    +0.176 C 
BRANCH  15  16
ATOM     16  C   GLY A   8      11.114 -29.338 -13.402  0.00  0.00    +0.243 C 
ATOM     17  N   PHE A   9      11.693 -30.525 -13.427  0.00  0.00    -0.297 N 
ATOM     18  H   PHE A   9      11.663 -31.119 -12.574  0.00  0.00    +0.150 HD
ATOM     19  O   GLY A   8      10.999 -28.587 -14.368  0.00  0.00    -0.273 OA
BRANCH  17  20
ATOM     20  CA  PHE A   9      12.373 -31.026 -14.615  0.00  0.00    +0.153 C 
BRANCH  20  21
ATOM     21  C   PHE A   9      11.436 -31.838 -15.486  0.00  0.00    +0.241 C 
ATOM     22  O   PHE A   9      10.526 -32.542 -15.027  0.00  0.00    -0.273 OA
ATOM     23  N   ILE A  10      11.654 -31.736 -16.795  0.00  0.00    -0.298 N 
ATOM     24  H   ILE A  10      12.408 -31.107 -17.137  0.00  0.00    +0.150 HD
BRANCH  23  25
ATOM     25  CA  ILE A  10      10.874 -32.472 -17.742  0.00  0.00    +0.137 C 
BRANCH  25  26
ATOM     26  CB  ILE A  10       9.763 -31.722 -18.464  0.00  0.00    +0.026 C 
ATOM     27  CG2 ILE A  10       8.827 -31.023 -17.486  0.00  0.00    +0.002 C 
BRANCH  26  28
ATOM     28  CG1 ILE A  10      10.288 -30.756 -19.526  0.00  0.00    +0.002 C 
ATOM     29  CD1 ILE A  10       9.199 -30.275 -20.459  0.00  0.00    +0.000 C 
ENDBRANCH  26  28
ENDBRANCH  25  26
BRANCH  25  30
ATOM     30  C   ILE A  10      11.832 -33.018 -18.822  0.00  0.00    +0.227 C 
ATOM     31  O   ILE A  10      12.898 -32.492 -19.072  0.00  0.00    -0.286 OA
ENDBRANCH  25  30
ENDBRANCH  23  25
ENDBRANCH  20  21
BRANCH  20  32
ATOM     32  CB  PHE A   9      13.561 -31.889 -14.186  0.00  0.00    +0.055 C 
BRANCH  32  33
ATOM     33  CG  PHE A   9      14.796 -31.114 -13.782  0.00  0.00    -0.020 A 
ATOM     34  CD2 PHE A   9      14.922 -30.575 -12.511  0.00  0.00    -0.004 A 
ATOM     35  CE2 PHE A   9      16.050 -29.859 -12.165  0.00  0.00    -0.000 A 
ATOM     36  CZ  PHE A   9      17.081 -29.683 -13.065  0.00  0.00    -0.000 A 
ATOM     37  CE1 PHE A   9      16.964 -30.216 -14.338  0.00  0.00    -0.000 A 
ATOM     38  CD1 PHE A   9      15.828 -30.921 -14.679  0.00  0.00    -0.004 A 
ENDBRANCH  32  33
ENDBRANCH  20  32
ENDBRANCH  17  20
ENDBRANCH  15  16
ENDBRANCH  13  15
ENDBRANCH  10  11
ENDBRANCH   8  10
ENDBRANCH   5   6
BRANCH   5  39
ATOM     39  CB  ILE A   6       9.446 -22.035 -13.106  0.00  0.00    +0.027 C 
ATOM     40  CG2 ILE A   6       8.331 -22.479 -14.036  0.00  0.00    +0.002 C 
BRANCH  39  41
ATOM     41  CG1 ILE A   6       8.949 -21.373 -11.830  0.00  0.00    +0.002 C 
ATOM     42  CD1 ILE A   6       9.984 -21.036 -10.797  0.00  0.00    +0.000 C 
ENDBRANCH  39  41
ENDBRANCH   5  39
ENDBRANCH   3   5
BRANCH   1  43
ATOM     43  CA  GLY A   5      12.198 -25.191 -15.278  0.00  0.00    +0.176 C 
BRANCH  43  45
ATOM     44  C   GLY A   4      14.229 -26.430 -15.362  0.00  0.00    +0.243 C 
ATOM     45  N   GLY A   5      12.934 -26.419 -15.215  0.00  0.00    -0.295 N 
ATOM     46  H   GLY A   5      12.428 -27.313 -15.050  0.00  0.00    +0.150 HD
ATOM     47  O   GLY A   4      14.857 -25.426 -15.626  0.00  0.00    -0.273 OA
BRANCH  44  48
ATOM     48  CA  GLY A   4      14.854 -27.808 -15.156  0.00  0.00    +0.176 C 
BRANCH  48  50
ATOM     49  C   ILE A   3      14.711 -29.134 -17.229  0.00  0.00    +0.241 C 
ATOM     50  N   GLY A   4      15.348 -28.293 -16.426  0.00  0.00    -0.295 N 
ATOM     51  H   GLY A   4      16.281 -27.954 -16.735  0.00  0.00    +0.150 HD
ATOM     52  O   ILE A   3      13.617 -29.655 -17.060  0.00  0.00    -0.273 OA
BRANCH  49  53
ATOM     53  CA  ILE A   3      15.529 -29.477 -18.481  0.00  0.00    +0.149 C 
BRANCH  53  56
ATOM     54  C   MET A   2      16.422 -31.669 -18.756  0.00  0.00    +0.241 C 
ATOM     55  O   MET A   2      17.584 -31.302 -18.722  0.00  0.00    -0.273 OA
ATOM     56  N   ILE A   3      15.347 -30.904 -18.746  0.00  0.00    -0.297 N 
ATOM     57  H   ILE A   3      14.402 -31.302 -18.921  0.00  0.00    +0.150 HD
BRANCH  54  58
ATOM     58  CA  MET A   2      16.140 -33.169 -18.840  0.00  0.00    +0.149 C 
BRANCH  58  60
ATOM     59  C   LYS A   1      16.431 -33.984 -21.110  0.00  0.00    +0.238 C 
ATOM     60  N   MET A   2      16.950 -33.707 -19.916  0.00  0.00    -0.297 N 
ATOM     61  H   MET A   2      17.962 -33.881 -19.751  0.00  0.00    +0.150 HD
ATOM     62  O   LYS A   1      15.254 -33.952 -21.408  0.00  0.00    -0.274 OA
BRANCH  59  63
ATOM     63  CA  LYS A   1      17.444 -34.410 -22.162  0.00  0.00    +0.145 C 
BRANCH  63  64
ATOM     64  N   LYS A   1      16.896 -35.511 -22.933  0.00  0.00    -0.238 NA
ATOM     65  H   LYS A   1      15.869 -35.570 -23.084  0.00  0.00    +0.142 HD
ENDBRANCH  63  64
BRANCH  63  66
ATOM     66  CB  LYS A   1      17.791 -33.302 -23.157  0.00  0.00    +0.026 C 
BRANCH  66  67
ATOM     67  CG  LYS A   1      18.031 -31.974 -22.478  0.00  0.00    -0.000 C 
BRANCH  67  68
ATOM     68  CD  LYS A   1      19.418 -31.988 -21.863  0.00  0.00    -0.024 C 
BRANCH  68  69
ATOM     69  CE  LYS A   1      19.822 -30.534 -21.581  0.00  0.00    -0.086 C 
BRANCH  69  70
ATOM     70  NZ  LYS A   1      21.241 -30.478 -21.149  0.00  0.00    +0.380 N 
ATOM     71  HZ1 LYS A   1      21.361 -31.042 -20.283  0.00  0.00    -0.089 HD
ATOM     72  HZ2 LYS A   1      21.506 -29.490 -20.960  0.00  0.00    -0.089 HD
ATOM     73  HZ3 LYS A   1      21.847 -30.863 -21.902  0.00  0.00    -0.089 HD
ENDBRANCH  69  70
ENDBRANCH  68  69
ENDBRANCH  67  68
ENDBRANCH  66  67
ENDBRANCH  63  66
ENDBRANCH  59  63
ENDBRANCH  58  60
BRANCH  58  74
ATOM     74  CB  MET A   2      16.443 -33.817 -17.496  0.00  0.00    +0.041 C 
BRANCH  74  75
ATOM     75  CG  MET A   2      16.238 -35.324 -17.463  0.00  0.00    +0.060 C 
BRANCH  75  76
ATOM     76  SD  MET A   2      14.500 -35.752 -17.698  0.00  0.00    -0.139 S 
ATOM     77  CE  MET A   2      13.832 -35.251 -16.112  0.00  0.00    +0.069 C 
ENDBRANCH  75  76
ENDBRANCH  74  75
ENDBRANCH  58  74
ENDBRANCH  54  58
ENDBRANCH  53  56
BRANCH  53  78
ATOM     78  CB  ILE A   3      15.197 -28.611 -19.681  0.00  0.00    +0.027 C 
ATOM     79  CG2 ILE A   3      16.327 -28.709 -20.699  0.00  0.00    +0.002 C 
BRANCH  78  80
ATOM     80  CG1 ILE A   3      13.842 -28.911 -20.328  0.00  0.00    +0.002 C 
ATOM     81  CD1 ILE A   3      13.495 -27.879 -21.383  0.00  0.00    +0.000 C 
ENDBRANCH  78  80
ENDBRANCH  53  78
ENDBRANCH  49  53
ENDBRANCH  48  50
ENDBRANCH  44  48
ENDBRANCH  43  45
ENDBRANCH   1  43
TORSDOF 36
REMARK  Name = ../refined-set-2016/2pwr/2pwr_pocket.pdb
REMARK  237 active torsions:
REMARK  status: ('A' for Active; 'I' for Inactive)
REMARK    1  A    between atoms: _1  and  _3
REMARK    2  A    between atoms: _3  and  _4
REMARK    3  A    between atoms: _3  and  _6
REMARK    4  A    between atoms: _6  and  _7
REMARK    5  A    between atoms: _7  and  _8
REMARK    6  A    between atoms: _8  and  _9
REMARK    7  A    between atoms: _18  and  _20
REMARK    8  A    between atoms: _20  and  _21
REMARK    9  A    between atoms: _20  and  _23
REMARK   10  A    between atoms: _23  and  _24
REMARK   11  A    between atoms: _27  and  _29
REMARK   12  A    between atoms: _29  and  _30
REMARK   13  A    between atoms: _29  and  _32
REMARK   14  A    between atoms: _32  and  _33
REMARK   15  A    between atoms: _36  and  _38
REMARK   16  A    between atoms: _38  and  _39
REMARK   17  A    between atoms: _38  and  _41
REMARK   18  A    between atoms: _41  and  _42
REMARK   19  A    between atoms: _45  and  _47
REMARK   20  A    between atoms: _47  and  _48
REMARK   21  A    between atoms: _47  and  _50
REMARK   22  A    between atoms: _50  and  _51
REMARK   23  A    between atoms: _54  and  _56
REMARK   24  A    between atoms: _56  and  _57
REMARK   25  A    between atoms: _59  and  _61
REMARK   26  A    between atoms: _61  and  _62
REMARK   27  A    between atoms: _65  and  _67
REMARK   28  A    between atoms: _67  and  _68
REMARK   29  A    between atoms: _67  and  _70
REMARK   30  A    between atoms: _70  and  _71
REMARK   31  A    between atoms: _74  and  _76
REMARK   32  A    between atoms: _76  and  _77
REMARK   33  A    between atoms: _76  and  _79
REMARK   34  A    between atoms: _79  and  _80
REMARK   35  A    between atoms: _83  and  _85
REMARK   36  A    between atoms: _85  and  _86
REMARK   37  A    between atoms: _85  and  _88
REMARK   38  A    between atoms: _88  and  _89
REMARK   39  A    between atoms: _92  and  _94
REMARK   40  A    between atoms: _94  and  _95
REMARK   41  A    between atoms: _94  and  _97
REMARK   42  A    between atoms: _100  and  _102
REMARK   43  A    between atoms: _102  and  _103
REMARK   44  A    between atoms: _102  and  _105
REMARK   45  A    between atoms: _105  and  _106
REMARK   46  A    between atoms: _106  and  _107
REMARK   47  A    between atoms: _107  and  _108
REMARK   48  A    between atoms: _108  and  _109
REMARK   49  A    between atoms: _113  and  _115
REMARK   50  A    between atoms: _115  and  _116
REMARK   51  A    between atoms: _115  and  _118
REMARK   52  A    between atoms: _118  and  _119
REMARK   53  A    between atoms: _119  and  _120
REMARK   54  A    between atoms: _122  and  _124
REMARK   55  A    between atoms: _124  and  _125
REMARK   56  A    between atoms: _124  and  _127
REMARK   57  A    between atoms: _127  and  _128
REMARK   58  A    between atoms: _131  and  _133
REMARK   59  A    between atoms: _133  and  _134
REMARK   60  A    between atoms: _136  and  _138
REMARK   61  A    between atoms: _138  and  _139
REMARK   62  A    between atoms: _141  and  _143
REMARK   63  A    between atoms: _143  and  _144
REMARK   64  A    between atoms: _143  and  _146
REMARK   65  A    between atoms: _146  and  _147
REMARK   66  A    between atoms: _150  and  _152
REMARK   67  A    between atoms: _152  and  _153
REMARK   68  A    between atoms: _155  and  _157
REMARK   69  A    between atoms: _157  and  _158
REMARK   70  A    between atoms: _160  and  _162
REMARK   71  A    between atoms: _162  and  _163
REMARK   72  A    between atoms: _162  and  _165
REMARK   73  A    between atoms: _165  and  _166
REMARK   74  A    between atoms: _172  and  _174
REMARK   75  A    between atoms: _174  and  _175
REMARK   76  A    between atoms: _174  and  _177
REMARK   77  A    between atoms: _177  and  _178
REMARK   78  A    between atoms: _181  and  _183
REMARK   79  A    between atoms: _183  and  _184
REMARK   80  A    between atoms: _183  and  _186
REMARK   81  A    between atoms: _189  and  _191
REMARK   82  A    between atoms: _191  and  _192
REMARK   83  A    between atoms: _191  and  _194
REMARK   84  A    between atoms: _194  and  _195
REMARK   85  A    between atoms: _198  and  _200
REMARK   86  A    between atoms: _200  and  _201
REMARK   87  A    between atoms: _200  and  _203
REMARK   88  A    between atoms: _203  and  _204
REMARK   89  A    between atoms: _208  and  _209
REMARK   90  A    between atoms: _214  and  _216
REMARK   91  A    between atoms: _216  and  _217
REMARK   92  A    between atoms: _216  and  _219
REMARK   93  A    between atoms: _222  and  _224
REMARK   94  A    between atoms: _224  and  _225
REMARK   95  A    between atoms: _224  and  _227
REMARK   96  A    between atoms: _227  and  _228
REMARK   97  A    between atoms: _233  and  _235
REMARK   98  A    between atoms: _235  and  _236
REMARK   99  A    between atoms: _235  and  _238
REMARK  100  A    between atoms: _238  and  _239
REMARK  101  A    between atoms: _242  and  _244
REMARK  102  A    between atoms: _244  and  _245
REMARK  103  A    between atoms: _244  and  _247
REMARK  104  A    between atoms: _247  and  _248
REMARK  105  A    between atoms: _251  and  _253
REMARK  106  A    between atoms: _253  and  _254
REMARK  107  A    between atoms: _256  and  _258
REMARK  108  A    between atoms: _258  and  _259
REMARK  109  A    between atoms: _258  and  _261
REMARK  110  A    between atoms: _261  and  _262
REMARK  111  A    between atoms: _262  and  _263
REMARK  112  A    between atoms: _263  and  _264
REMARK  113  A    between atoms: _273  and  _275
REMARK  114  A    between atoms: _275  and  _276
REMARK  115  A    between atoms: _275  and  _278
REMARK  116  A    between atoms: _278  and  _279
REMARK  117  A    between atoms: _284  and  _286
REMARK  118  A    between atoms: _286  and  _287
REMARK  119  A    between atoms: _286  and  _289
REMARK  120  A    between atoms: _289  and  _290
REMARK  121  A    between atoms: _290  and  _291
REMARK  122  A    between atoms: _291  and  _292
REMARK  123  A    between atoms: _301  and  _303
REMARK  124  A    between atoms: _303  and  _304
REMARK  125  A    between atoms: _303  and  _306
REMARK  126  A    between atoms: _306  and  _307
REMARK  127  A    between atoms: _310  and  _312
REMARK  128  A    between atoms: _312  and  _313
REMARK  129  A    between atoms: _312  and  _315
REMARK  130  A    between atoms: _315  and  _316
REMARK  131  A    between atoms: _319  and  _321
REMARK  132  A    between atoms: _321  and  _322
REMARK  133  A    between atoms: _321  and  _324
REMARK  134  A    between atoms: _324  and  _325
REMARK  135  A    between atoms: _328  and  _330
REMARK  136  A    between atoms: _330  and  _331
REMARK  137  A    between atoms: _330  and  _333
REMARK  138  A    between atoms: _333  and  _334
REMARK  139  A    between atoms: _337  and  _339
REMARK  140  A    between atoms: _339  and  _340
REMARK  141  A    between atoms: _339  and  _342
REMARK  142  A    between atoms: _342  and  _343
REMARK  143  A    between atoms: _346  and  _348
REMARK  144  A    between atoms: _348  and  _349
REMARK  145  A    between atoms: _351  and  _353
REMARK  146  A    between atoms: _353  and  _354
REMARK  147  A    between atoms: _357  and  _359
REMARK  148  A    between atoms: _359  and  _360
REMARK  149  A    between atoms: _359  and  _362
REMARK  150  A    between atoms: _362  and  _363
REMARK  151  A    between atoms: _366  and  _368
REMARK  152  A    between atoms: _368  and  _369
REMARK  153  A    between atoms: _368  and  _371
REMARK  154  A    between atoms: _371  and  _372
REMARK  155  A    between atoms: _375  and  _377
REMARK  156  A    between atoms: _377  and  _378
REMARK  157  A    between atoms: _377  and  _380
REMARK  158  A    between atoms: _380  and  _381
REMARK  159  A    between atoms: _384  and  _386
REMARK  160  A    between atoms: _386  and  _387
REMARK  161  A    between atoms: _386  and  _389
REMARK  162  A    between atoms: _392  and  _394
REMARK  163  A    between atoms: _394  and  _395
REMARK  164  A    between atoms: _394  and  _397
REMARK  165  A    between atoms: _397  and  _398
REMARK  166  A    between atoms: _398  and  _399
REMARK  167  A    between atoms: _399  and  _400
REMARK  168  A    between atoms: _400  and  _401
REMARK  169  A    between atoms: _405  and  _407
REMARK  170  A    between atoms: _407  and  _408
REMARK  171  A    between atoms: _407  and  _410
REMARK  172  A    between atoms: _410  and  _411
REMARK  173  A    between atoms: _411  and  _412
REMARK  174  A    between atoms: _414  and  _416
REMARK  175  A    between atoms: _416  and  _417
REMARK  176  A    between atoms: _416  and  _419
REMARK  177  A    between atoms: _419  and  _420
REMARK  178  A    between atoms: _423  and  _425
REMARK  179  A    between atoms: _425  and  _426
REMARK  180  A    between atoms: _428  and  _430
REMARK  181  A    between atoms: _430  and  _431
REMARK  182  A    between atoms: _433  and  _435
REMARK  183  A    between atoms: _435  and  _436
REMARK  184  A    between atoms: _435  and  _438
REMARK  185  A    between atoms: _438  and  _439
REMARK  186  A    between atoms: _442  and  _444
REMARK  187  A    between atoms: _444  and  _445
REMARK  188  A    between atoms: _447  and  _449
REMARK  189  A    between atoms: _449  and  _450
REMARK  190  A    between atoms: _452  and  _454
REMARK  191  A    between atoms: _454  and  _455
REMARK  192  A    between atoms: _454  and  _457
REMARK  193  A    between atoms: _457  and  _458
REMARK  194  A    between atoms: _464  and  _466
REMARK  195  A    between atoms: _466  and  _467
REMARK  196  A    between atoms: _466  and  _469
REMARK  197  A    between atoms: _469  and  _470
REMARK  198  A    between atoms: _473  and  _475
REMARK  199  A    between atoms: _475  and  _476
REMARK  200  A    between atoms: _475  and  _478
REMARK  201  A    between atoms: _481  and  _483
REMARK  202  A    between atoms: _483  and  _484
REMARK  203  A    between atoms: _483  and  _486
REMARK  204  A    between atoms: _486  and  _487
REMARK  205  A    between atoms: _491  and  _492
REMARK  206  A    between atoms: _497  and  _499
REMARK  207  A    between atoms: _499  and  _500
REMARK  208  A    between atoms: _499  and  _502
REMARK  209  A    between atoms: _502  and  _503
REMARK  210  A    between atoms: _507  and  _508
REMARK  211  A    between atoms: _513  and  _515
REMARK  212  A    between atoms: _515  and  _516
REMARK  213  A    between atoms: _515  and  _518
REMARK  214  A    between atoms: _521  and  _523
REMARK  215  A    between atoms: _523  and  _524
REMARK  216  A    between atoms: _523  and  _526
REMARK  217  A    between atoms: _526  and  _527
REMARK  218  A    between atoms: _532  and  _534
REMARK  219  A    between atoms: _534  and  _535
REMARK  220  A    between atoms: _534  and  _537
REMARK  221  A    between atoms: _537  and  _538
REMARK  222  A    between atoms: _541  and  _543
REMARK  223  A    between atoms: _543  and  _544
REMARK  224  A    between atoms: _543  and  _546
REMARK  225  A    between atoms: _546  and  _547
REMARK  226  A    between atoms: _550  and  _552
REMARK  227  A    between atoms: _552  and  _553
REMARK  228  A    between atoms: _555  and  _557
REMARK  229  A    between atoms: _557  and  _558
REMARK  230  A    between atoms: _557  and  _560
REMARK  231  A    between atoms: _560  and  _561
REMARK  232  A    between atoms: _561  and  _562
REMARK  233  A    between atoms: _562  and  _563
REMARK  234  A    between atoms: _572  and  _574
REMARK  235  A    between atoms: _574  and  _575
REMARK  236  A    between atoms: _574  and  _577
REMARK  237  A    between atoms: _577  and  _578
REMARK                            x       y       z     vdW  Elec       q    Type
REMARK                         _______ _______ _______ _____ _____    ______ ____
ROOT
ATOM      1  CA  VAL A   1      12.493 -33.160 -23.943  0.00  0.00    +0.133 C 
ENDROOT
BRANCH   1   2
ATOM      2  CB  VAL A   1      12.773 -31.668 -24.067  0.00  0.00    +0.023 C 
ATOM      3  CG2 VAL A   1      11.822 -30.856 -23.211  0.00  0.00    +0.002 C 
ATOM      4  CG1 VAL A   1      14.194 -31.368 -23.634  0.00  0.00    +0.002 C 
ENDBRANCH   1   2
BRANCH   1   5
ATOM      5  N   VAL A   1      12.697 -33.681 -22.609  0.00  0.00    -0.239 NA
ATOM      6  H   VAL A   1      13.665 -33.823 -22.257  0.00  0.00    +0.142 HD
ENDBRANCH   1   5
BRANCH   1   7
ATOM      7  C   VAL A   1      13.364 -33.935 -24.931  0.00  0.00    +0.224 C 
ATOM      8  O   VAL A   1      14.178 -34.754 -24.485  0.00  0.00    -0.287 OA
ENDBRANCH   1   7
TORSDOF 3
REMARK  Name = ../refined-set-2016/2pwr/2pwr_pocket.pdb
REMARK  237 active torsions:
REMARK  status: ('A' for Active; 'I' for Inactive)
REMARK    1  A    between atoms: _1  and  _3
REMARK    2  A    between atoms: _3  and  _4
REMARK    3  A    between atoms: _3  and  _6
REMARK    4  A    between atoms: _6  and  _7
REMARK    5  A    between atoms: _7  and  _8
REMARK    6  A    between atoms: _8  and  _9
REMARK    7  A    between atoms: _18  and  _20
REMARK    8  A    between atoms: _20  and  _21
REMARK    9  A    between atoms: _20  and  _23
REMARK   10  A    between atoms: _23  and  _24
REMARK   11  A    between atoms: _27  and  _29
REMARK   12  A    between atoms: _29  and  _30
REMARK   13  A    between atoms: _29  and  _32
REMARK   14  A    between atoms: _32  and  _33
REMARK   15  A    between atoms: _36  and  _38
REMARK   16  A    between atoms: _38  and  _39
REMARK   17  A    between atoms: _38  and  _41
REMARK   18  A    between atoms: _41  and  _42
REMARK   19  A    between atoms: _45  and  _47
REMARK   20  A    between atoms: _47  and  _48
REMARK   21  A    between atoms: _47  and  _50
REMARK   22  A    between atoms: _50  and  _51
REMARK   23  A    between atoms: _54  and  _56
REMARK   24  A    between atoms: _56  and  _57
REMARK   25  A    between atoms: _59  and  _61
REMARK   26  A    between atoms: _61  and  _62
REMARK   27  A    between atoms: _65  and  _67
REMARK   28  A    between atoms: _67  and  _68
REMARK   29  A    between atoms: _67  and  _70
REMARK   30  A    between atoms: _70  and  _71
REMARK   31  A    between atoms: _74  and  _76
REMARK   32  A    between atoms: _76  and  _77
REMARK   33  A    between atoms: _76  and  _79
REMARK   34  A    between atoms: _79  and  _80
REMARK   35  A    between atoms: _83  and  _85
REMARK   36  A    between atoms: _85  and  _86
REMARK   37  A    between atoms: _85  and  _88
REMARK   38  A    between atoms: _88  and  _89
REMARK   39  A    between atoms: _92  and  _94
REMARK   40  A    between atoms: _94  and  _95
REMARK   41  A    between atoms: _94  and  _97
REMARK   42  A    between atoms: _100  and  _102
REMARK   43  A    between atoms: _102  and  _103
REMARK   44  A    between atoms: _102  and  _105
REMARK   45  A    between atoms: _105  and  _106
REMARK   46  A    between atoms: _106  and  _107
REMARK   47  A    between atoms: _107  and  _108
REMARK   48  A    between atoms: _108  and  _109
REMARK   49  A    between atoms: _113  and  _115
REMARK   50  A    between atoms: _115  and  _116
REMARK   51  A    between atoms: _115  and  _118
REMARK   52  A    between atoms: _118  and  _119
REMARK   53  A    between atoms: _119  and  _120
REMARK   54  A    between atoms: _122  and  _124
REMARK   55  A    between atoms: _124  and  _125
REMARK   56  A    between atoms: _124  and  _127
REMARK   57  A    between atoms: _127  and  _128
REMARK   58  A    between atoms: _131  and  _133
REMARK   59  A    between atoms: _133  and  _134
REMARK   60  A    between atoms: _136  and  _138
REMARK   61  A    between atoms: _138  and  _139
REMARK   62  A    between atoms: _141  and  _143
REMARK   63  A    between atoms: _143  and  _144
REMARK   64  A    between atoms: _143  and  _146
REMARK   65  A    between atoms: _146  and  _147
REMARK   66  A    between atoms: _150  and  _152
REMARK   67  A    between atoms: _152  and  _153
REMARK   68  A    between atoms: _155  and  _157
REMARK   69  A    between atoms: _157  and  _158
REMARK   70  A    between atoms: _160  and  _162
REMARK   71  A    between atoms: _162  and  _163
REMARK   72  A    between atoms: _162  and  _165
REMARK   73  A    between atoms: _165  and  _166
REMARK   74  A    between atoms: _172  and  _174
REMARK   75  A    between atoms: _174  and  _175
REMARK   76  A    between atoms: _174  and  _177
REMARK   77  A    between atoms: _177  and  _178
REMARK   78  A    between atoms: _181  and  _183
REMARK   79  A    between atoms: _183  and  _184
REMARK   80  A    between atoms: _183  and  _186
REMARK   81  A    between atoms: _189  and  _191
REMARK   82  A    between atoms: _191  and  _192
REMARK   83  A    between atoms: _191  and  _194
REMARK   84  A    between atoms: _194  and  _195
REMARK   85  A    between atoms: _198  and  _200
REMARK   86  A    between atoms: _200  and  _201
REMARK   87  A    between atoms: _200  and  _203
REMARK   88  A    between atoms: _203  and  _204
REMARK   89  A    between atoms: _208  and  _209
REMARK   90  A    between atoms: _214  and  _216
REMARK   91  A    between atoms: _216  and  _217
REMARK   92  A    between atoms: _216  and  _219
REMARK   93  A    between atoms: _222  and  _224
REMARK   94  A    between atoms: _224  and  _225
REMARK   95  A    between atoms: _224  and  _227
REMARK   96  A    between atoms: _227  and  _228
REMARK   97  A    between atoms: _233  and  _235
REMARK   98  A    between atoms: _235  and  _236
REMARK   99  A    between atoms: _235  and  _238
REMARK  100  A    between atoms: _238  and  _239
REMARK  101  A    between atoms: _242  and  _244
REMARK  102  A    between atoms: _244  and  _245
REMARK  103  A    between atoms: _244  and  _247
REMARK  104  A    between atoms: _247  and  _248
REMARK  105  A    between atoms: _251  and  _253
REMARK  106  A    between atoms: _253  and  _254
REMARK  107  A    between atoms: _256  and  _258
REMARK  108  A    between atoms: _258  and  _259
REMARK  109  A    between atoms: _258  and  _261
REMARK  110  A    between atoms: _261  and  _262
REMARK  111  A    between atoms: _262  and  _263
REMARK  112  A    between atoms: _263  and  _264
REMARK  113  A    between atoms: _273  and  _275
REMARK  114  A    between atoms: _275  and  _276
REMARK  115  A    between atoms: _275  and  _278
REMARK  116  A    between atoms: _278  and  _279
REMARK  117  A    between atoms: _284  and  _286
REMARK  118  A    between atoms: _286  and  _287
REMARK  119  A    between atoms: _286  and  _289
REMARK  120  A    between atoms: _289  and  _290
REMARK  121  A    between atoms: _290  and  _291
REMARK  122  A    between atoms: _291  and  _292
REMARK  123  A    between atoms: _301  and  _303
REMARK  124  A    between atoms: _303  and  _304
REMARK  125  A    between atoms: _303  and  _306
REMARK  126  A    between atoms: _306  and  _307
REMARK  127  A    between atoms: _310  and  _312
REMARK  128  A    between atoms: _312  and  _313
REMARK  129  A    between atoms: _312  and  _315
REMARK  130  A    between atoms: _315  and  _316
REMARK  131  A    between atoms: _319  and  _321
REMARK  132  A    between atoms: _321  and  _322
REMARK  133  A    between atoms: _321  and  _324
REMARK  134  A    between atoms: _324  and  _325
REMARK  135  A    between atoms: _328  and  _330
REMARK  136  A    between atoms: _330  and  _331
REMARK  137  A    between atoms: _330  and  _333
REMARK  138  A    between atoms: _333  and  _334
REMARK  139  A    between atoms: _337  and  _339
REMARK  140  A    between atoms: _339  and  _340
REMARK  141  A    between atoms: _339  and  _342
REMARK  142  A    between atoms: _342  and  _343
REMARK  143  A    between atoms: _346  and  _348
REMARK  144  A    between atoms: _348  and  _349
REMARK  145  A    between atoms: _351  and  _353
REMARK  146  A    between atoms: _353  and  _354
REMARK  147  A    between atoms: _357  and  _359
REMARK  148  A    between atoms: _359  and  _360
REMARK  149  A    between atoms: _359  and  _362
REMARK  150  A    between atoms: _362  and  _363
REMARK  151  A    between atoms: _366  and  _368
REMARK  152  A    between atoms: _368  and  _369
REMARK  153  A    between atoms: _368  and  _371
REMARK  154  A    between atoms: _371  and  _372
REMARK  155  A    between atoms: _375  and  _377
REMARK  156  A    between atoms: _377  and  _378
REMARK  157  A    between atoms: _377  and  _380
REMARK  158  A    between atoms: _380  and  _381
REMARK  159  A    between atoms: _384  and  _386
REMARK  160  A    between atoms: _386  and  _387
REMARK  161  A    between atoms: _386  and  _389
REMARK  162  A    between atoms: _392  and  _394
REMARK  163  A    between atoms: _394  and  _395
REMARK  164  A    between atoms: _394  and  _397
REMARK  165  A    between atoms: _397  and  _398
REMARK  166  A    between atoms: _398  and  _399
REMARK  167  A    between atoms: _399  and  _400
REMARK  168  A    between atoms: _400  and  _401
REMARK  169  A    between atoms: _405  and  _407
REMARK  170  A    between atoms: _407  and  _408
REMARK  171  A    between atoms: _407  and  _410
REMARK  172  A    between atoms: _410  and  _411
REMARK  173  A    between atoms: _411  and  _412
REMARK  174  A    between atoms: _414  and  _416
REMARK  175  A    between atoms: _416  and  _417
REMARK  176  A    between atoms: _416  and  _419
REMARK  177  A    between atoms: _419  and  _420
REMARK  178  A    between atoms: _423  and  _425
REMARK  179  A    between atoms: _425  and  _426
REMARK  180  A    between atoms: _428  and  _430
REMARK  181  A    between atoms: _430  and  _431
REMARK  182  A    between atoms: _433  and  _435
REMARK  183  A    between atoms: _435  and  _436
REMARK  184  A    between atoms: _435  and  _438
REMARK  185  A    between atoms: _438  and  _439
REMARK  186  A    between atoms: _442  and  _444
REMARK  187  A    between atoms: _444  and  _445
REMARK  188  A    between atoms: _447  and  _449
REMARK  189  A    between atoms: _449  and  _450
REMARK  190  A    between atoms: _452  and  _454
REMARK  191  A    between atoms: _454  and  _455
REMARK  192  A    between atoms: _454  and  _457
REMARK  193  A    between atoms: _457  and  _458
REMARK  194  A    between atoms: _464  and  _466
REMARK  195  A    between atoms: _466  and  _467
REMARK  196  A    between atoms: _466  and  _469
REMARK  197  A    between atoms: _469  and  _470
REMARK  198  A    between atoms: _473  and  _475
REMARK  199  A    between atoms: _475  and  _476
REMARK  200  A    between atoms: _475  and  _478
REMARK  201  A    between atoms: _481  and  _483
REMARK  202  A    between atoms: _483  and  _484
REMARK  203  A    between atoms: _483  and  _486
REMARK  204  A    between atoms: _486  and  _487
REMARK  205  A    between atoms: _491  and  _492
REMARK  206  A    between atoms: _497  and  _499
REMARK  207  A    between atoms: _499  and  _500
REMARK  208  A    between atoms: _499  and  _502
REMARK  209  A    between atoms: _502  and  _503
REMARK  210  A    between atoms: _507  and  _508
REMARK  211  A    between atoms: _513  and  _515
REMARK  212  A    between atoms: _515  and  _516
REMARK  213  A    between atoms: _515  and  _518
REMARK  214  A    between atoms: _521  and  _523
REMARK  215  A    between atoms: _523  and  _524
REMARK  216  A    between atoms: _523  and  _526
REMARK  217  A    between atoms: _526  and  _527
REMARK  218  A    between atoms: _532  and  _534
REMARK  219  A    between atoms: _534  and  _535
REMARK  220  A    between atoms: _534  and  _537
REMARK  221  A    between atoms: _537  and  _538
REMARK  222  A    between atoms: _541  and  _543
REMARK  223  A    between atoms: _543  and  _544
REMARK  224  A    between atoms: _543  and  _546
REMARK  225  A    between atoms: _546  and  _547
REMARK  226  A    between atoms: _550  and  _552
REMARK  227  A    between atoms: _552  and  _553
REMARK  228  A    between atoms: _555  and  _557
REMARK  229  A    between atoms: _557  and  _558
REMARK  230  A    between atoms: _557  and  _560
REMARK  231  A    between atoms: _560  and  _561
REMARK  232  A    between atoms: _561  and  _562
REMARK  233  A    between atoms: _562  and  _563
REMARK  234  A    between atoms: _572  and  _574
REMARK  235  A    between atoms: _574  and  _575
REMARK  236  A    between atoms: _574  and  _577
REMARK  237  A    between atoms: _577  and  _578
REMARK                            x       y       z     vdW  Elec       q    Type
REMARK                         _______ _______ _______ _____ _____    ______ ____
ROOT
ATOM      1  CA  LEU A   1      15.334 -29.224 -27.864  0.00  0.00    +0.133 C 
ENDROOT
BRANCH   1   2
ATOM      2  N   LEU A   1      16.178 -28.331 -28.611  0.00  0.00    -0.239 NA
ATOM      3  H   LEU A   1      16.309 -27.358 -28.268  0.00  0.00    +0.142 HD
ENDBRANCH   1   2
BRANCH   1   4
ATOM      4  C   LEU A   1      13.904 -28.984 -28.314  0.00  0.00    +0.224 C 
ATOM      5  O   LEU A   1      13.513 -27.858 -28.674  0.00  0.00    -0.287 OA
ENDBRANCH   1   4
BRANCH   1   6
ATOM      6  CB  LEU A   1      15.454 -28.989 -26.363  0.00  0.00    +0.025 C 
BRANCH   6   7
ATOM      7  CG  LEU A   1      16.900 -28.853 -25.865  0.00  0.00    +0.002 C 
ATOM      8  CD2 LEU A   1      16.961 -28.602 -24.369  0.00  0.00    +0.000 C 
ATOM      9  CD1 LEU A   1      17.707 -30.089 -26.186  0.00  0.00    +0.000 C 
ENDBRANCH   6   7
ENDBRANCH   1   6
TORSDOF 4
REMARK  Name = ../refined-set-2016/2pwr/2pwr_pocket.pdb
REMARK  237 active torsions:
REMARK  status: ('A' for Active; 'I' for Inactive)
REMARK    1  A    between atoms: _1  and  _3
REMARK    2  A    between atoms: _3  and  _4
REMARK    3  A    between atoms: _3  and  _6
REMARK    4  A    between atoms: _6  and  _7
REMARK    5  A    between atoms: _7  and  _8
REMARK    6  A    between atoms: _8  and  _9
REMARK    7  A    between atoms: _18  and  _20
REMARK    8  A    between atoms: _20  and  _21
REMARK    9  A    between atoms: _20  and  _23
REMARK   10  A    between atoms: _23  and  _24
REMARK   11  A    between atoms: _27  and  _29
REMARK   12  A    between atoms: _29  and  _30
REMARK   13  A    between atoms: _29  and  _32
REMARK   14  A    between atoms: _32  and  _33
REMARK   15  A    between atoms: _36  and  _38
REMARK   16  A    between atoms: _38  and  _39
REMARK   17  A    between atoms: _38  and  _41
REMARK   18  A    between atoms: _41  and  _42
REMARK   19  A    between atoms: _45  and  _47
REMARK   20  A    between atoms: _47  and  _48
REMARK   21  A    between atoms: _47  and  _50
REMARK   22  A    between atoms: _50  and  _51
REMARK   23  A    between atoms: _54  and  _56
REMARK   24  A    between atoms: _56  and  _57
REMARK   25  A    between atoms: _59  and  _61
REMARK   26  A    between atoms: _61  and  _62
REMARK   27  A    between atoms: _65  and  _67
REMARK   28  A    between atoms: _67  and  _68
REMARK   29  A    between atoms: _67  and  _70
REMARK   30  A    between atoms: _70  and  _71
REMARK   31  A    between atoms: _74  and  _76
REMARK   32  A    between atoms: _76  and  _77
REMARK   33  A    between atoms: _76  and  _79
REMARK   34  A    between atoms: _79  and  _80
REMARK   35  A    between atoms: _83  and  _85
REMARK   36  A    between atoms: _85  and  _86
REMARK   37  A    between atoms: _85  and  _88
REMARK   38  A    between atoms: _88  and  _89
REMARK   39  A    between atoms: _92  and  _94
REMARK   40  A    between atoms: _94  and  _95
REMARK   41  A    between atoms: _94  and  _97
REMARK   42  A    between atoms: _100  and  _102
REMARK   43  A    between atoms: _102  and  _103
REMARK   44  A    between atoms: _102  and  _105
REMARK   45  A    between atoms: _105  and  _106
REMARK   46  A    between atoms: _106  and  _107
REMARK   47  A    between atoms: _107  and  _108
REMARK   48  A    between atoms: _108  and  _109
REMARK   49  A    between atoms: _113  and  _115
REMARK   50  A    between atoms: _115  and  _116
REMARK   51  A    between atoms: _115  and  _118
REMARK   52  A    between atoms: _118  and  _119
REMARK   53  A    between atoms: _119  and  _120
REMARK   54  A    between atoms: _122  and  _124
REMARK   55  A    between atoms: _124  and  _125
REMARK   56  A    between atoms: _124  and  _127
REMARK   57  A    between atoms: _127  and  _128
REMARK   58  A    between atoms: _131  and  _133
REMARK   59  A    between atoms: _133  and  _134
REMARK   60  A    between atoms: _136  and  _138
REMARK   61  A    between atoms: _138  and  _139
REMARK   62  A    between atoms: _141  and  _143
REMARK   63  A    between atoms: _143  and  _144
REMARK   64  A    between atoms: _143  and  _146
REMARK   65  A    between atoms: _146  and  _147
REMARK   66  A    between atoms: _150  and  _152
REMARK   67  A    between atoms: _152  and  _153
REMARK   68  A    between atoms: _155  and  _157
REMARK   69  A    between atoms: _157  and  _158
REMARK   70  A    between atoms: _160  and  _162
REMARK   71  A    between atoms: _162  and  _163
REMARK   72  A    between atoms: _162  and  _165
REMARK   73  A    between atoms: _165  and  _166
REMARK   74  A    between atoms: _172  and  _174
REMARK   75  A    between atoms: _174  and  _175
REMARK   76  A    between atoms: _174  and  _177
REMARK   77  A    between atoms: _177  and  _178
REMARK   78  A    between atoms: _181  and  _183
REMARK   79  A    between atoms: _183  and  _184
REMARK   80  A    between atoms: _183  and  _186
REMARK   81  A    between atoms: _189  and  _191
REMARK   82  A    between atoms: _191  and  _192
REMARK   83  A    between atoms: _191  and  _194
REMARK   84  A    between atoms: _194  and  _195
REMARK   85  A    between atoms: _198  and  _200
REMARK   86  A    between atoms: _200  and  _201
REMARK   87  A    between atoms: _200  and  _203
REMARK   88  A    between atoms: _203  and  _204
REMARK   89  A    between atoms: _208  and  _209
REMARK   90  A    between atoms: _214  and  _216
REMARK   91  A    between atoms: _216  and  _217
REMARK   92  A    between atoms: _216  and  _219
REMARK   93  A    between atoms: _222  and  _224
REMARK   94  A    between atoms: _224  and  _225
REMARK   95  A    between atoms: _224  and  _227
REMARK   96  A    between atoms: _227  and  _228
REMARK   97  A    between atoms: _233  and  _235
REMARK   98  A    between atoms: _235  and  _236
REMARK   99  A    between atoms: _235  and  _238
REMARK  100  A    between atoms: _238  and  _239
REMARK  101  A    between atoms: _242  and  _244
REMARK  102  A    between atoms: _244  and  _245
REMARK  103  A    between atoms: _244  and  _247
REMARK  104  A    between atoms: _247  and  _248
REMARK  105  A    between atoms: _251  and  _253
REMARK  106  A    between atoms: _253  and  _254
REMARK  107  A    between atoms: _256  and  _258
REMARK  108  A    between atoms: _258  and  _259
REMARK  109  A    between atoms: _258  and  _261
REMARK  110  A    between atoms: _261  and  _262
REMARK  111  A    between atoms: _262  and  _263
REMARK  112  A    between atoms: _263  and  _264
REMARK  113  A    between atoms: _273  and  _275
REMARK  114  A    between atoms: _275  and  _276
REMARK  115  A    between atoms: _275  and  _278
REMARK  116  A    between atoms: _278  and  _279
REMARK  117  A    between atoms: _284  and  _286
REMARK  118  A    between atoms: _286  and  _287
REMARK  119  A    between atoms: _286  and  _289
REMARK  120  A    between atoms: _289  and  _290
REMARK  121  A    between atoms: _290  and  _291
REMARK  122  A    between atoms: _291  and  _292
REMARK  123  A    between atoms: _301  and  _303
REMARK  124  A    between atoms: _303  and  _304
REMARK  125  A    between atoms: _303  and  _306
REMARK  126  A    between atoms: _306  and  _307
REMARK  127  A    between atoms: _310  and  _312
REMARK  128  A    between atoms: _312  and  _313
REMARK  129  A    between atoms: _312  and  _315
REMARK  130  A    between atoms: _315  and  _316
REMARK  131  A    between atoms: _319  and  _321
REMARK  132  A    between atoms: _321  and  _322
REMARK  133  A    between atoms: _321  and  _324
REMARK  134  A    between atoms: _324  and  _325
REMARK  135  A    between atoms: _328  and  _330
REMARK  136  A    between atoms: _330  and  _331
REMARK  137  A    between atoms: _330  and  _333
REMARK  138  A    between atoms: _333  and  _334
REMARK  139  A    between atoms: _337  and  _339
REMARK  140  A    between atoms: _339  and  _340
REMARK  141  A    between atoms: _339  and  _342
REMARK  142  A    between atoms: _342  and  _343
REMARK  143  A    between atoms: _346  and  _348
REMARK  144  A    between atoms: _348  and  _349
REMARK  145  A    between atoms: _351  and  _353
REMARK  146  A    between atoms: _353  and  _354
REMARK  147  A    between atoms: _357  and  _359
REMARK  148  A    between atoms: _359  and  _360
REMARK  149  A    between atoms: _359  and  _362
REMARK  150  A    between atoms: _362  and  _363
REMARK  151  A    between atoms: _366  and  _368
REMARK  152  A    between atoms: _368  and  _369
REMARK  153  A    between atoms: _368  and  _371
REMARK  154  A    between atoms: _371  and  _372
REMARK  155  A    between atoms: _375  and  _377
REMARK  156  A    between atoms: _377  and  _378
REMARK  157  A    between atoms: _377  and  _380
REMARK  158  A    between atoms: _380  and  _381
REMARK  159  A    between atoms: _384  and  _386
REMARK  160  A    between atoms: _386  and  _387
REMARK  161  A    between atoms: _386  and  _389
REMARK  162  A    between atoms: _392  and  _394
REMARK  163  A    between atoms: _394  and  _395
REMARK  164  A    between atoms: _394  and  _397
REMARK  165  A    between atoms: _397  and  _398
REMARK  166  A    between atoms: _398  and  _399
REMARK  167  A    between atoms: _399  and  _400
REMARK  168  A    between atoms: _400  and  _401
REMARK  169  A    between atoms: _405  and  _407
REMARK  170  A    between atoms: _407  and  _408
REMARK  171  A    between atoms: _407  and  _410
REMARK  172  A    between atoms: _410  and  _411
REMARK  173  A    between atoms: _411  and  _412
REMARK  174  A    between atoms: _414  and  _416
REMARK  175  A    between atoms: _416  and  _417
REMARK  176  A    between atoms: _416  and  _419
REMARK  177  A    between atoms: _419  and  _420
REMARK  178  A    between atoms: _423  and  _425
REMARK  179  A    between atoms: _425  and  _426
REMARK  180  A    between atoms: _428  and  _430
REMARK  181  A    between atoms: _430  and  _431
REMARK  182  A    between atoms: _433  and  _435
REMARK  183  A    between atoms: _435  and  _436
REMARK  184  A    between atoms: _435  and  _438
REMARK  185  A    between atoms: _438  and  _439
REMARK  186  A    between atoms: _442  and  _444
REMARK  187  A    between atoms: _444  and  _445
REMARK  188  A    between atoms: _447  and  _449
REMARK  189  A    between atoms: _449  and  _450
REMARK  190  A    between atoms: _452  and  _454
REMARK  191  A    between atoms: _454  and  _455
REMARK  192  A    between atoms: _454  and  _457
REMARK  193  A    between atoms: _457  and  _458
REMARK  194  A    between atoms: _464  and  _466
REMARK  195  A    between atoms: _466  and  _467
REMARK  196  A    between atoms: _466  and  _469
REMARK  197  A    between atoms: _469  and  _470
REMARK  198  A    between atoms: _473  and  _475
REMARK  199  A    between atoms: _475  and  _476
REMARK  200  A    between atoms: _475  and  _478
REMARK  201  A    between atoms: _481  and  _483
REMARK  202  A    between atoms: _483  and  _484
REMARK  203  A    between atoms: _483  and  _486
REMARK  204  A    between atoms: _486  and  _487
REMARK  205  A    between atoms: _491  and  _492
REMARK  206  A    between atoms: _497  and  _499
REMARK  207  A    between atoms: _499  and  _500
REMARK  208  A    between atoms: _499  and  _502
REMARK  209  A    between atoms: _502  and  _503
REMARK  210  A    between atoms: _507  and  _508
REMARK  211  A    between atoms: _513  and  _515
REMARK  212  A    between atoms: _515  and  _516
REMARK  213  A    between atoms: _515  and  _518
REMARK  214  A    between atoms: _521  and  _523
REMARK  215  A    between atoms: _523  and  _524
REMARK  216  A    between atoms: _523  and  _526
REMARK  217  A    between atoms: _526  and  _527
REMARK  218  A    between atoms: _532  and  _534
REMARK  219  A    between atoms: _534  and  _535
REMARK  220  A    between atoms: _534  and  _537
REMARK  221  A    between atoms: _537  and  _538
REMARK  222  A    between atoms: _541  and  _543
REMARK  223  A    between atoms: _543  and  _544
REMARK  224  A    between atoms: _543  and  _546
REMARK  225  A    between atoms: _546  and  _547
REMARK  226  A    between atoms: _550  and  _552
REMARK  227  A    between atoms: _552  and  _553
REMARK  228  A    between atoms: _555  and  _557
REMARK  229  A    between atoms: _557  and  _558
REMARK  230  A    between atoms: _557  and  _560
REMARK  231  A    between atoms: _560  and  _561
REMARK  232  A    between atoms: _561  and  _562
REMARK  233  A    between atoms: _562  and  _563
REMARK  234  A    between atoms: _572  and  _574
REMARK  235  A    between atoms: _574  and  _575
REMARK  236  A    between atoms: _574  and  _577
REMARK  237  A    between atoms: _577  and  _578
REMARK                            x       y       z     vdW  Elec       q    Type
REMARK                         _______ _______ _______ _____ _____    ______ ____
ROOT
ATOM      1  CA  ILE A   6      12.822 -20.212 -26.586  0.00  0.00    +0.149 C 
ENDROOT
BRANCH   1   2
ATOM      2  C   ILE A   6      14.188 -20.424 -27.237  0.00  0.00    +0.241 C 
ATOM      3  N   ILE A   7      14.849 -19.294 -27.459  0.00  0.00    -0.297 N 
ATOM      4  H   ILE A   7      14.354 -18.387 -27.343  0.00  0.00    +0.150 HD
ATOM      5  O   ILE A   6      14.603 -21.544 -27.497  0.00  0.00    -0.273 OA
BRANCH   3   6
ATOM      6  CA  ILE A   7      16.252 -19.292 -27.861  0.00  0.00    +0.149 C 
BRANCH   6   7
ATOM      7  C   ILE A   7      17.051 -18.995 -26.602  0.00  0.00    +0.241 C 
ATOM      8  O   ILE A   7      16.939 -17.899 -26.057  0.00  0.00    -0.273 OA
ATOM      9  N   GLY A   8      17.776 -19.984 -26.148  0.00  0.00    -0.295 N 
ATOM     10  H   GLY A   8      17.796 -20.870 -26.693  0.00  0.00    +0.150 HD
BRANCH   9  11
ATOM     11  CA  GLY A   8      18.549 -19.914 -24.934  0.00  0.00    +0.176 C 
BRANCH  11  12
ATOM     12  C   GLY A   8      20.017 -19.684 -25.244  0.00  0.00    +0.243 C 
ATOM     13  N   ARG A   9      20.816 -19.761 -24.180  0.00  0.00    -0.297 N 
ATOM     14  H   ARG A   9      20.476 -20.169 -23.285  0.00  0.00    +0.150 HD
ATOM     15  O   GLY A   8      20.410 -19.423 -26.358  0.00  0.00    -0.273 OA
BRANCH  13  16
ATOM     16  CA  ARG A   9      22.166 -19.263 -24.303  0.00  0.00    +0.149 C 
BRANCH  16  17
ATOM     17  C   ARG A   9      23.002 -20.019 -25.314  0.00  0.00    +0.241 C 
ATOM     18  N   ASN A  10      22.745 -21.291 -25.551  0.00  0.00    -0.298 N 
ATOM     19  H   ASN A  10      21.966 -21.775 -25.061  0.00  0.00    +0.150 HD
ATOM     20  O   ARG A   9      23.951 -19.432 -25.849  0.00  0.00    -0.273 OA
BRANCH  18  21
ATOM     21  CA  ASN A  10      23.579 -22.008 -26.518  0.00  0.00    +0.146 C 
BRANCH  21  22
ATOM     22  C   ASN A  10      23.570 -21.322 -27.869  0.00  0.00    +0.227 C 
ATOM     23  O   ASN A  10      24.622 -21.209 -28.516  0.00  0.00    -0.286 OA
ENDBRANCH  21  22
BRANCH  21  24
ATOM     24  CB  ASN A  10      23.119 -23.440 -26.613  0.00  0.00    +0.112 C 
BRANCH  24  25
ATOM     25  CG  ASN A  10      21.790 -23.651 -27.306  0.00  0.00    +0.222 C 
ATOM     26  OD1 ASN A  10      20.821 -22.994 -26.911  0.00  0.00    -0.275 OA
ATOM     27  ND2 ASN A  10      21.802 -24.536 -28.281  0.00  0.00    -0.329 N 
ATOM     28 HD21 ASN A  10      22.685 -25.029 -28.525  0.00  0.00    +0.145 HD
ATOM     29 HD22 ASN A  10      20.929 -24.742 -28.807  0.00  0.00    +0.145 HD
ENDBRANCH  24  25
ENDBRANCH  21  24
ENDBRANCH  18  21
ENDBRANCH  16  17
BRANCH  16  30
ATOM     30  CB  ARG A   9      22.893 -19.326 -22.947  0.00  0.00    +0.033 C 
BRANCH  30  31
ATOM     31  CG  ARG A   9      22.334 -18.365 -21.923  0.00  0.00    +0.045 C 
BRANCH  31  32
ATOM     32  CD  ARG A   9      23.163 -18.249 -20.658  0.00  0.00    +0.174 C 
BRANCH  32  33
ATOM     33  NE  ARG A   9      23.246 -19.553 -20.034  0.00  0.00    -0.265 N 
ATOM     34  HE  ARG A   9      22.421 -19.820 -19.459  0.00  0.00    +0.259 HD
ATOM     35  CZ  ARG A   9      24.206 -20.452 -20.083  0.00  0.00    +0.342 C 
ATOM     36  NH2 ARG A   9      24.051 -21.606 -19.438  0.00  0.00    -0.292 N 
ATOM     37 HH21 ARG A   9      23.178 -21.789 -18.903  0.00  0.00    +0.255 HD
ATOM     38 HH22 ARG A   9      24.803 -22.324 -19.469  0.00  0.00    +0.255 HD
ATOM     39  NH1 ARG A   9      25.332 -20.243 -20.740  0.00  0.00    -0.292 N 
ATOM     40 HH11 ARG A   9      26.068 -20.977 -20.756  0.00  0.00    +0.255 HD
ATOM     41 HH12 ARG A   9      25.483 -19.344 -21.241  0.00  0.00    +0.255 HD
ENDBRANCH  32  33
ENDBRANCH  31  32
ENDBRANCH  30  31
ENDBRANCH  16  30
ENDBRANCH  13  16
ENDBRANCH  11  12
ENDBRANCH   9  11
ENDBRANCH   6   7
BRANCH   6  42
ATOM     42  CB  ILE A   7      16.504 -18.248 -28.936  0.00  0.00    +0.027 C 
ATOM     43  CG2 ILE A   7      17.942 -18.282 -29.435  0.00  0.00    +0.002 C 
BRANCH  42  44
ATOM     44  CG1 ILE A   7      15.534 -18.316 -30.118  0.00  0.00    +0.002 C 
ATOM     45  CD1 ILE A   7      15.462 -19.673 -30.755  0.00  0.00    +0.000 C 
ENDBRANCH  42  44
ENDBRANCH   6  42
ENDBRANCH   3   6
ENDBRANCH   1   2
BRANCH   1  47
ATOM     46  C   ASN A   5      10.673 -20.278 -27.696  0.00  0.00    +0.241 C 
ATOM     47  N   ILE A   6      11.773 -20.892 -27.319  0.00  0.00    -0.297 N 
ATOM     48  H   ILE A   6      11.894 -21.898 -27.554  0.00  0.00    +0.150 HD
ATOM     49  O   ASN A   5      10.468 -19.070 -27.543  0.00  0.00    -0.273 OA
BRANCH  46  50
ATOM     50  CA  ASN A   5       9.632 -21.178 -28.348  0.00  0.00    +0.158 C 
BRANCH  50  53
ATOM     51  C   VAL A   4       8.196 -21.021 -26.439  0.00  0.00    +0.241 C 
ATOM     52  O   VAL A   4       9.091 -21.470 -25.721  0.00  0.00    -0.273 OA
ATOM     53  N   ASN A   5       8.337 -20.932 -27.748  0.00  0.00    -0.297 N 
ATOM     54  H   ASN A   5       7.522 -20.686 -28.346  0.00  0.00    +0.150 HD
BRANCH  51  55
ATOM     55  CA  VAL A   4       6.888 -20.528 -25.841  0.00  0.00    +0.149 C 
BRANCH  55  58
ATOM     56  C   PRO A   3       5.494 -21.456 -24.071  0.00  0.00    +0.241 C 
ATOM     57  O   PRO A   3       4.512 -20.924 -24.532  0.00  0.00    -0.273 OA
ATOM     58  N   VAL A   4       6.692 -21.319 -24.649  0.00  0.00    -0.297 N 
ATOM     59  H   VAL A   4       7.511 -21.799 -24.225  0.00  0.00    +0.150 HD
BRANCH  56  65
ATOM     60  C   THR A   2       6.559 -24.262 -23.732  0.00  0.00    +0.246 C 
ATOM     61  N   PRO A   3       6.520 -23.316 -22.788  0.00  0.00    -0.272 N 
ATOM     62  CD  PRO A   3       7.427 -23.116 -21.657  0.00  0.00    +0.094 C 
ATOM     63  CG  PRO A   3       7.172 -21.653 -21.344  0.00  0.00    +0.024 C 
ATOM     64  CB  PRO A   3       5.712 -21.425 -21.606  0.00  0.00    +0.031 C 
ATOM     65  CA  PRO A   3       5.453 -22.316 -22.826  0.00  0.00    +0.152 C 
ATOM     66  O   THR A   2       5.701 -24.269 -24.629  0.00  0.00    -0.273 OA
BRANCH  60  67
ATOM     67  CA  THR A   2       7.674 -25.272 -23.656  0.00  0.00    +0.176 C 
BRANCH  67  70
ATOM     68  C   PRO A   1       6.539 -27.415 -23.406  0.00  0.00    +0.239 C 
ATOM     69  O   PRO A   1       6.289 -27.193 -22.244  0.00  0.00    -0.274 OA
ATOM     70  N   THR A   2       7.214 -26.552 -24.159  0.00  0.00    -0.295 N 
ATOM     71  H   THR A   2       7.420 -26.805 -25.147  0.00  0.00    +0.150 HD
BRANCH  68  76
ATOM     72  N   PRO A   1       7.314 -29.507 -24.539  0.00  0.00    -0.210 NA
ATOM     73  CD  PRO A   1       7.463 -30.635 -23.631  0.00  0.00    +0.089 C 
ATOM     74  CG  PRO A   1       6.313 -30.460 -22.667  0.00  0.00    +0.021 C 
ATOM     75  CB  PRO A   1       5.311 -29.603 -23.366  0.00  0.00    +0.028 C 
ATOM     76  CA  PRO A   1       6.172 -28.647 -24.200  0.00  0.00    +0.149 C 
ENDBRANCH  68  76
ENDBRANCH  67  70
BRANCH  67  77
ATOM     77  CB  THR A   2       8.907 -24.834 -24.494  0.00  0.00    +0.137 C 
ATOM     78  CG2 THR A   2       8.603 -24.650 -25.975  0.00  0.00    +0.034 C 
BRANCH  77  79
ATOM     79  OG1 THR A   2       9.362 -23.574 -24.000  0.00  0.00    -0.382 OA
ATOM     80  HG1 THR A   2       8.637 -22.905 -24.087  0.00  0.00    +0.210 HD
ENDBRANCH  77  79
ENDBRANCH  67  77
ENDBRANCH  60  67
ENDBRANCH  56  65
ENDBRANCH  55  58
BRANCH  55  81
ATOM     81  CB  VAL A   4       6.931 -19.011 -25.591  0.00  0.00    +0.027 C 
ATOM     82  CG2 VAL A   4       8.051 -18.642 -24.631  0.00  0.00    +0.002 C 
ATOM     83  CG1 VAL A   4       7.077 -18.300 -26.924  0.00  0.00    +0.002 C 
ENDBRANCH  55  81
ENDBRANCH  51  55
ENDBRANCH  50  53
BRANCH  50  84
ATOM     84  CB  ASN A   5       9.601 -20.842 -29.819  0.00  0.00    +0.114 C 
BRANCH  84  85
ATOM     85  CG  ASN A   5       8.714 -21.732 -30.623  0.00  0.00    +0.222 C 
ATOM     86  OD1 ASN A   5       8.668 -22.939 -30.411  0.00  0.00    -0.275 OA
ATOM     87  ND2 ASN A   5       8.041 -21.165 -31.596  0.00  0.00    -0.329 N 
ATOM     88 HD21 ASN A   5       8.106 -20.138 -31.744  0.00  0.00    +0.145 HD
ATOM     89 HD22 ASN A   5       7.442 -21.743 -32.220  0.00  0.00    +0.145 HD
ENDBRANCH  84  85
ENDBRANCH  50  84
ENDBRANCH  46  50
ENDBRANCH   1  47
BRANCH   1  90
ATOM     90  CB  ILE A   6      12.906 -20.704 -25.135  0.00  0.00    +0.027 C 
ATOM     91  CG2 ILE A   6      14.267 -20.421 -24.514  0.00  0.00    +0.002 C 
BRANCH  90  92
ATOM     92  CG1 ILE A   6      11.756 -20.136 -24.276  0.00  0.00    +0.002 C 
ATOM     93  CD1 ILE A   6      11.465 -20.980 -23.065  0.00  0.00    +0.000 C 
ENDBRANCH  90  92
ENDBRANCH   1  90
TORSDOF 33
REMARK  Name = ../refined-set-2016/2pwr/2pwr_pocket.pdb
REMARK  237 active torsions:
REMARK  status: ('A' for Active; 'I' for Inactive)
REMARK    1  A    between atoms: _1  and  _3
REMARK    2  A    between atoms: _3  and  _4
REMARK    3  A    between atoms: _3  and  _6
REMARK    4  A    between atoms: _6  and  _7
REMARK    5  A    between atoms: _7  and  _8
REMARK    6  A    between atoms: _8  and  _9
REMARK    7  A    between atoms: _18  and  _20
REMARK    8  A    between atoms: _20  and  _21
REMARK    9  A    between atoms: _20  and  _23
REMARK   10  A    between atoms: _23  and  _24
REMARK   11  A    between atoms: _27  and  _29
REMARK   12  A    between atoms: _29  and  _30
REMARK   13  A    between atoms: _29  and  _32
REMARK   14  A    between atoms: _32  and  _33
REMARK   15  A    between atoms: _36  and  _38
REMARK   16  A    between atoms: _38  and  _39
REMARK   17  A    between atoms: _38  and  _41
REMARK   18  A    between atoms: _41  and  _42
REMARK   19  A    between atoms: _45  and  _47
REMARK   20  A    between atoms: _47  and  _48
REMARK   21  A    between atoms: _47  and  _50
REMARK   22  A    between atoms: _50  and  _51
REMARK   23  A    between atoms: _54  and  _56
REMARK   24  A    between atoms: _56  and  _57
REMARK   25  A    between atoms: _59  and  _61
REMARK   26  A    between atoms: _61  and  _62
REMARK   27  A    between atoms: _65  and  _67
REMARK   28  A    between atoms: _67  and  _68
REMARK   29  A    between atoms: _67  and  _70
REMARK   30  A    between atoms: _70  and  _71
REMARK   31  A    between atoms: _74  and  _76
REMARK   32  A    between atoms: _76  and  _77
REMARK   33  A    between atoms: _76  and  _79
REMARK   34  A    between atoms: _79  and  _80
REMARK   35  A    between atoms: _83  and  _85
REMARK   36  A    between atoms: _85  and  _86
REMARK   37  A    between atoms: _85  and  _88
REMARK   38  A    between atoms: _88  and  _89
REMARK   39  A    between atoms: _92  and  _94
REMARK   40  A    between atoms: _94  and  _95
REMARK   41  A    between atoms: _94  and  _97
REMARK   42  A    between atoms: _100  and  _102
REMARK   43  A    between atoms: _102  and  _103
REMARK   44  A    between atoms: _102  and  _105
REMARK   45  A    between atoms: _105  and  _106
REMARK   46  A    between atoms: _106  and  _107
REMARK   47  A    between atoms: _107  and  _108
REMARK   48  A    between atoms: _108  and  _109
REMARK   49  A    between atoms: _113  and  _115
REMARK   50  A    between atoms: _115  and  _116
REMARK   51  A    between atoms: _115  and  _118
REMARK   52  A    between atoms: _118  and  _119
REMARK   53  A    between atoms: _119  and  _120
REMARK   54  A    between atoms: _122  and  _124
REMARK   55  A    between atoms: _124  and  _125
REMARK   56  A    between atoms: _124  and  _127
REMARK   57  A    between atoms: _127  and  _128
REMARK   58  A    between atoms: _131  and  _133
REMARK   59  A    between atoms: _133  and  _134
REMARK   60  A    between atoms: _136  and  _138
REMARK   61  A    between atoms: _138  and  _139
REMARK   62  A    between atoms: _141  and  _143
REMARK   63  A    between atoms: _143  and  _144
REMARK   64  A    between atoms: _143  and  _146
REMARK   65  A    between atoms: _146  and  _147
REMARK   66  A    between atoms: _150  and  _152
REMARK   67  A    between atoms: _152  and  _153
REMARK   68  A    between atoms: _155  and  _157
REMARK   69  A    between atoms: _157  and  _158
REMARK   70  A    between atoms: _160  and  _162
REMARK   71  A    between atoms: _162  and  _163
REMARK   72  A    between atoms: _162  and  _165
REMARK   73  A    between atoms: _165  and  _166
REMARK   74  A    between atoms: _172  and  _174
REMARK   75  A    between atoms: _174  and  _175
REMARK   76  A    between atoms: _174  and  _177
REMARK   77  A    between atoms: _177  and  _178
REMARK   78  A    between atoms: _181  and  _183
REMARK   79  A    between atoms: _183  and  _184
REMARK   80  A    between atoms: _183  and  _186
REMARK   81  A    between atoms: _189  and  _191
REMARK   82  A    between atoms: _191  and  _192
REMARK   83  A    between atoms: _191  and  _194
REMARK   84  A    between atoms: _194  and  _195
REMARK   85  A    between atoms: _198  and  _200
REMARK   86  A    between atoms: _200  and  _201
REMARK   87  A    between atoms: _200  and  _203
REMARK   88  A    between atoms: _203  and  _204
REMARK   89  A    between atoms: _208  and  _209
REMARK   90  A    between atoms: _214  and  _216
REMARK   91  A    between atoms: _216  and  _217
REMARK   92  A    between atoms: _216  and  _219
REMARK   93  A    between atoms: _222  and  _224
REMARK   94  A    between atoms: _224  and  _225
REMARK   95  A    between atoms: _224  and  _227
REMARK   96  A    between atoms: _227  and  _228
REMARK   97  A    between atoms: _233  and  _235
REMARK   98  A    between atoms: _235  and  _236
REMARK   99  A    between atoms: _235  and  _238
REMARK  100  A    between atoms: _238  and  _239
REMARK  101  A    between atoms: _242  and  _244
REMARK  102  A    between atoms: _244  and  _245
REMARK  103  A    between atoms: _244  and  _247
REMARK  104  A    between atoms: _247  and  _248
REMARK  105  A    between atoms: _251  and  _253
REMARK  106  A    between atoms: _253  and  _254
REMARK  107  A    between atoms: _256  and  _258
REMARK  108  A    between atoms: _258  and  _259
REMARK  109  A    between atoms: _258  and  _261
REMARK  110  A    between atoms: _261  and  _262
REMARK  111  A    between atoms: _262  and  _263
REMARK  112  A    between atoms: _263  and  _264
REMARK  113  A    between atoms: _273  and  _275
REMARK  114  A    between atoms: _275  and  _276
REMARK  115  A    between atoms: _275  and  _278
REMARK  116  A    between atoms: _278  and  _279
REMARK  117  A    between atoms: _284  and  _286
REMARK  118  A    between atoms: _286  and  _287
REMARK  119  A    between atoms: _286  and  _289
REMARK  120  A    between atoms: _289  and  _290
REMARK  121  A    between atoms: _290  and  _291
REMARK  122  A    between atoms: _291  and  _292
REMARK  123  A    between atoms: _301  and  _303
REMARK  124  A    between atoms: _303  and  _304
REMARK  125  A    between atoms: _303  and  _306
REMARK  126  A    between atoms: _306  and  _307
REMARK  127  A    between atoms: _310  and  _312
REMARK  128  A    between atoms: _312  and  _313
REMARK  129  A    between atoms: _312  and  _315
REMARK  130  A    between atoms: _315  and  _316
REMARK  131  A    between atoms: _319  and  _321
REMARK  132  A    between atoms: _321  and  _322
REMARK  133  A    between atoms: _321  and  _324
REMARK  134  A    between atoms: _324  and  _325
REMARK  135  A    between atoms: _328  and  _330
REMARK  136  A    between atoms: _330  and  _331
REMARK  137  A    between atoms: _330  and  _333
REMARK  138  A    between atoms: _333  and  _334
REMARK  139  A    between atoms: _337  and  _339
REMARK  140  A    between atoms: _339  and  _340
REMARK  141  A    between atoms: _339  and  _342
REMARK  142  A    between atoms: _342  and  _343
REMARK  143  A    between atoms: _346  and  _348
REMARK  144  A    between atoms: _348  and  _349
REMARK  145  A    between atoms: _351  and  _353
REMARK  146  A    between atoms: _353  and  _354
REMARK  147  A    between atoms: _357  and  _359
REMARK  148  A    between atoms: _359  and  _360
REMARK  149  A    between atoms: _359  and  _362
REMARK  150  A    between atoms: _362  and  _363
REMARK  151  A    between atoms: _366  and  _368
REMARK  152  A    between atoms: _368  and  _369
REMARK  153  A    between atoms: _368  and  _371
REMARK  154  A    between atoms: _371  and  _372
REMARK  155  A    between atoms: _375  and  _377
REMARK  156  A    between atoms: _377  and  _378
REMARK  157  A    between atoms: _377  and  _380
REMARK  158  A    between atoms: _380  and  _381
REMARK  159  A    between atoms: _384  and  _386
REMARK  160  A    between atoms: _386  and  _387
REMARK  161  A    between atoms: _386  and  _389
REMARK  162  A    between atoms: _392  and  _394
REMARK  163  A    between atoms: _394  and  _395
REMARK  164  A    between atoms: _394  and  _397
REMARK  165  A    between atoms: _397  and  _398
REMARK  166  A    between atoms: _398  and  _399
REMARK  167  A    between atoms: _399  and  _400
REMARK  168  A    between atoms: _400  and  _401
REMARK  169  A    between atoms: _405  and  _407
REMARK  170  A    between atoms: _407  and  _408
REMARK  171  A    between atoms: _407  and  _410
REMARK  172  A    between atoms: _410  and  _411
REMARK  173  A    between atoms: _411  and  _412
REMARK  174  A    between atoms: _414  and  _416
REMARK  175  A    between atoms: _416  and  _417
REMARK  176  A    between atoms: _416  and  _419
REMARK  177  A    between atoms: _419  and  _420
REMARK  178  A    between atoms: _423  and  _425
REMARK  179  A    between atoms: _425  and  _426
REMARK  180  A    between atoms: _428  and  _430
REMARK  181  A    between atoms: _430  and  _431
REMARK  182  A    between atoms: _433  and  _435
REMARK  183  A    between atoms: _435  and  _436
REMARK  184  A    between atoms: _435  and  _438
REMARK  185  A    between atoms: _438  and  _439
REMARK  186  A    between atoms: _442  and  _444
REMARK  187  A    between atoms: _444  and  _445
REMARK  188  A    between atoms: _447  and  _449
REMARK  189  A    between atoms: _449  and  _450
REMARK  190  A    between atoms: _452  and  _454
REMARK  191  A    between atoms: _454  and  _455
REMARK  192  A    between atoms: _454  and  _457
REMARK  193  A    between atoms: _457  and  _458
REMARK  194  A    between atoms: _464  and  _466
REMARK  195  A    between atoms: _466  and  _467
REMARK  196  A    between atoms: _466  and  _469
REMARK  197  A    between atoms: _469  and  _470
REMARK  198  A    between atoms: _473  and  _475
REMARK  199  A    between atoms: _475  and  _476
REMARK  200  A    between atoms: _475  and  _478
REMARK  201  A    between atoms: _481  and  _483
REMARK  202  A    between atoms: _483  and  _484
REMARK  203  A    between atoms: _483  and  _486
REMARK  204  A    between atoms: _486  and  _487
REMARK  205  A    between atoms: _491  and  _492
REMARK  206  A    between atoms: _497  and  _499
REMARK  207  A    between atoms: _499  and  _500
REMARK  208  A    between atoms: _499  and  _502
REMARK  209  A    between atoms: _502  and  _503
REMARK  210  A    between atoms: _507  and  _508
REMARK  211  A    between atoms: _513  and  _515
REMARK  212  A    between atoms: _515  and  _516
REMARK  213  A    between atoms: _515  and  _518
REMARK  214  A    between atoms: _521  and  _523
REMARK  215  A    between atoms: _523  and  _524
REMARK  216  A    between atoms: _523  and  _526
REMARK  217  A    between atoms: _526  and  _527
REMARK  218  A    between atoms: _532  and  _534
REMARK  219  A    between atoms: _534  and  _535
REMARK  220  A    between atoms: _534  and  _537
REMARK  221  A    between atoms: _537  and  _538
REMARK  222  A    between atoms: _541  and  _543
REMARK  223  A    between atoms: _543  and  _544
REMARK  224  A    between atoms: _543  and  _546
REMARK  225  A    between atoms: _546  and  _547
REMARK  226  A    between atoms: _550  and  _552
REMARK  227  A    between atoms: _552  and  _553
REMARK  228  A    between atoms: _555  and  _557
REMARK  229  A    between atoms: _557  and  _558
REMARK  230  A    between atoms: _557  and  _560
REMARK  231  A    between atoms: _560  and  _561
REMARK  232  A    between atoms: _561  and  _562
REMARK  233  A    between atoms: _562  and  _563
REMARK  234  A    between atoms: _572  and  _574
REMARK  235  A    between atoms: _574  and  _575
REMARK  236  A    between atoms: _574  and  _577
REMARK  237  A    between atoms: _577  and  _578
REMARK                            x       y       z     vdW  Elec       q    Type
REMARK                         _______ _______ _______ _____ _____    ______ ____
ROOT
ATOM      1  O   HOH     1      10.288 -12.019 -21.383  0.00  0.00    +0.000 OA
ENDROOT
TORSDOF 0
REMARK  Name = ../refined-set-2016/2pwr/2pwr_pocket.pdb
REMARK  237 active torsions:
REMARK  status: ('A' for Active; 'I' for Inactive)
REMARK    1  A    between atoms: _1  and  _3
REMARK    2  A    between atoms: _3  and  _4
REMARK    3  A    between atoms: _3  and  _6
REMARK    4  A    between atoms: _6  and  _7
REMARK    5  A    between atoms: _7  and  _8
REMARK    6  A    between atoms: _8  and  _9
REMARK    7  A    between atoms: _18  and  _20
REMARK    8  A    between atoms: _20  and  _21
REMARK    9  A    between atoms: _20  and  _23
REMARK   10  A    between atoms: _23  and  _24
REMARK   11  A    between atoms: _27  and  _29
REMARK   12  A    between atoms: _29  and  _30
REMARK   13  A    between atoms: _29  and  _32
REMARK   14  A    between atoms: _32  and  _33
REMARK   15  A    between atoms: _36  and  _38
REMARK   16  A    between atoms: _38  and  _39
REMARK   17  A    between atoms: _38  and  _41
REMARK   18  A    between atoms: _41  and  _42
REMARK   19  A    between atoms: _45  and  _47
REMARK   20  A    between atoms: _47  and  _48
REMARK   21  A    between atoms: _47  and  _50
REMARK   22  A    between atoms: _50  and  _51
REMARK   23  A    between atoms: _54  and  _56
REMARK   24  A    between atoms: _56  and  _57
REMARK   25  A    between atoms: _59  and  _61
REMARK   26  A    between atoms: _61  and  _62
REMARK   27  A    between atoms: _65  and  _67
REMARK   28  A    between atoms: _67  and  _68
REMARK   29  A    between atoms: _67  and  _70
REMARK   30  A    between atoms: _70  and  _71
REMARK   31  A    between atoms: _74  and  _76
REMARK   32  A    between atoms: _76  and  _77
REMARK   33  A    between atoms: _76  and  _79
REMARK   34  A    between atoms: _79  and  _80
REMARK   35  A    between atoms: _83  and  _85
REMARK   36  A    between atoms: _85  and  _86
REMARK   37  A    between atoms: _85  and  _88
REMARK   38  A    between atoms: _88  and  _89
REMARK   39  A    between atoms: _92  and  _94
REMARK   40  A    between atoms: _94  and  _95
REMARK   41  A    between atoms: _94  and  _97
REMARK   42  A    between atoms: _100  and  _102
REMARK   43  A    between atoms: _102  and  _103
REMARK   44  A    between atoms: _102  and  _105
REMARK   45  A    between atoms: _105  and  _106
REMARK   46  A    between atoms: _106  and  _107
REMARK   47  A    between atoms: _107  and  _108
REMARK   48  A    between atoms: _108  and  _109
REMARK   49  A    between atoms: _113  and  _115
REMARK   50  A    between atoms: _115  and  _116
REMARK   51  A    between atoms: _115  and  _118
REMARK   52  A    between atoms: _118  and  _119
REMARK   53  A    between atoms: _119  and  _120
REMARK   54  A    between atoms: _122  and  _124
REMARK   55  A    between atoms: _124  and  _125
REMARK   56  A    between atoms: _124  and  _127
REMARK   57  A    between atoms: _127  and  _128
REMARK   58  A    between atoms: _131  and  _133
REMARK   59  A    between atoms: _133  and  _134
REMARK   60  A    between atoms: _136  and  _138
REMARK   61  A    between atoms: _138  and  _139
REMARK   62  A    between atoms: _141  and  _143
REMARK   63  A    between atoms: _143  and  _144
REMARK   64  A    between atoms: _143  and  _146
REMARK   65  A    between atoms: _146  and  _147
REMARK   66  A    between atoms: _150  and  _152
REMARK   67  A    between atoms: _152  and  _153
REMARK   68  A    between atoms: _155  and  _157
REMARK   69  A    between atoms: _157  and  _158
REMARK   70  A    between atoms: _160  and  _162
REMARK   71  A    between atoms: _162  and  _163
REMARK   72  A    between atoms: _162  and  _165
REMARK   73  A    between atoms: _165  and  _166
REMARK   74  A    between atoms: _172  and  _174
REMARK   75  A    between atoms: _174  and  _175
REMARK   76  A    between atoms: _174  and  _177
REMARK   77  A    between atoms: _177  and  _178
REMARK   78  A    between atoms: _181  and  _183
REMARK   79  A    between atoms: _183  and  _184
REMARK   80  A    between atoms: _183  and  _186
REMARK   81  A    between atoms: _189  and  _191
REMARK   82  A    between atoms: _191  and  _192
REMARK   83  A    between atoms: _191  and  _194
REMARK   84  A    between atoms: _194  and  _195
REMARK   85  A    between atoms: _198  and  _200
REMARK   86  A    between atoms: _200  and  _201
REMARK   87  A    between atoms: _200  and  _203
REMARK   88  A    between atoms: _203  and  _204
REMARK   89  A    between atoms: _208  and  _209
REMARK   90  A    between atoms: _214  and  _216
REMARK   91  A    between atoms: _216  and  _217
REMARK   92  A    between atoms: _216  and  _219
REMARK   93  A    between atoms: _222  and  _224
REMARK   94  A    between atoms: _224  and  _225
REMARK   95  A    between atoms: _224  and  _227
REMARK   96  A    between atoms: _227  and  _228
REMARK   97  A    between atoms: _233  and  _235
REMARK   98  A    between atoms: _235  and  _236
REMARK   99  A    between atoms: _235  and  _238
REMARK  100  A    between atoms: _238  and  _239
REMARK  101  A    between atoms: _242  and  _244
REMARK  102  A    between atoms: _244  and  _245
REMARK  103  A    between atoms: _244  and  _247
REMARK  104  A    between atoms: _247  and  _248
REMARK  105  A    between atoms: _251  and  _253
REMARK  106  A    between atoms: _253  and  _254
REMARK  107  A    between atoms: _256  and  _258
REMARK  108  A    between atoms: _258  and  _259
REMARK  109  A    between atoms: _258  and  _261
REMARK  110  A    between atoms: _261  and  _262
REMARK  111  A    between atoms: _262  and  _263
REMARK  112  A    between atoms: _263  and  _264
REMARK  113  A    between atoms: _273  and  _275
REMARK  114  A    between atoms: _275  and  _276
REMARK  115  A    between atoms: _275  and  _278
REMARK  116  A    between atoms: _278  and  _279
REMARK  117  A    between atoms: _284  and  _286
REMARK  118  A    between atoms: _286  and  _287
REMARK  119  A    between atoms: _286  and  _289
REMARK  120  A    between atoms: _289  and  _290
REMARK  121  A    between atoms: _290  and  _291
REMARK  122  A    between atoms: _291  and  _292
REMARK  123  A    between atoms: _301  and  _303
REMARK  124  A    between atoms: _303  and  _304
REMARK  125  A    between atoms: _303  and  _306
REMARK  126  A    between atoms: _306  and  _307
REMARK  127  A    between atoms: _310  and  _312
REMARK  128  A    between atoms: _312  and  _313
REMARK  129  A    between atoms: _312  and  _315
REMARK  130  A    between atoms: _315  and  _316
REMARK  131  A    between atoms: _319  and  _321
REMARK  132  A    between atoms: _321  and  _322
REMARK  133  A    between atoms: _321  and  _324
REMARK  134  A    between atoms: _324  and  _325
REMARK  135  A    between atoms: _328  and  _330
REMARK  136  A    between atoms: _330  and  _331
REMARK  137  A    between atoms: _330  and  _333
REMARK  138  A    between atoms: _333  and  _334
REMARK  139  A    between atoms: _337  and  _339
REMARK  140  A    between atoms: _339  and  _340
REMARK  141  A    between atoms: _339  and  _342
REMARK  142  A    between atoms: _342  and  _343
REMARK  143  A    between atoms: _346  and  _348
REMARK  144  A    between atoms: _348  and  _349
REMARK  145  A    between atoms: _351  and  _353
REMARK  146  A    between atoms: _353  and  _354
REMARK  147  A    between atoms: _357  and  _359
REMARK  148  A    between atoms: _359  and  _360
REMARK  149  A    between atoms: _359  and  _362
REMARK  150  A    between atoms: _362  and  _363
REMARK  151  A    between atoms: _366  and  _368
REMARK  152  A    between atoms: _368  and  _369
REMARK  153  A    between atoms: _368  and  _371
REMARK  154  A    between atoms: _371  and  _372
REMARK  155  A    between atoms: _375  and  _377
REMARK  156  A    between atoms: _377  and  _378
REMARK  157  A    between atoms: _377  and  _380
REMARK  158  A    between atoms: _380  and  _381
REMARK  159  A    between atoms: _384  and  _386
REMARK  160  A    between atoms: _386  and  _387
REMARK  161  A    between atoms: _386  and  _389
REMARK  162  A    between atoms: _392  and  _394
REMARK  163  A    between atoms: _394  and  _395
REMARK  164  A    between atoms: _394  and  _397
REMARK  165  A    between atoms: _397  and  _398
REMARK  166  A    between atoms: _398  and  _399
REMARK  167  A    between atoms: _399  and  _400
REMARK  168  A    between atoms: _400  and  _401
REMARK  169  A    between atoms: _405  and  _407
REMARK  170  A    between atoms: _407  and  _408
REMARK  171  A    between atoms: _407  and  _410
REMARK  172  A    between atoms: _410  and  _411
REMARK  173  A    between atoms: _411  and  _412
REMARK  174  A    between atoms: _414  and  _416
REMARK  175  A    between atoms: _416  and  _417
REMARK  176  A    between atoms: _416  and  _419
REMARK  177  A    between atoms: _419  and  _420
REMARK  178  A    between atoms: _423  and  _425
REMARK  179  A    between atoms: _425  and  _426
REMARK  180  A    between atoms: _428  and  _430
REMARK  181  A    between atoms: _430  and  _431
REMARK  182  A    between atoms: _433  and  _435
REMARK  183  A    between atoms: _435  and  _436
REMARK  184  A    between atoms: _435  and  _438
REMARK  185  A    between atoms: _438  and  _439
REMARK  186  A    between atoms: _442  and  _444
REMARK  187  A    between atoms: _444  and  _445
REMARK  188  A    between atoms: _447  and  _449
REMARK  189  A    between atoms: _449  and  _450
REMARK  190  A    between atoms: _452  and  _454
REMARK  191  A    between atoms: _454  and  _455
REMARK  192  A    between atoms: _454  and  _457
REMARK  193  A    between atoms: _457  and  _458
REMARK  194  A    between atoms: _464  and  _466
REMARK  195  A    between atoms: _466  and  _467
REMARK  196  A    between atoms: _466  and  _469
REMARK  197  A    between atoms: _469  and  _470
REMARK  198  A    between atoms: _473  and  _475
REMARK  199  A    between atoms: _475  and  _476
REMARK  200  A    between atoms: _475  and  _478
REMARK  201  A    between atoms: _481  and  _483
REMARK  202  A    between atoms: _483  and  _484
REMARK  203  A    between atoms: _483  and  _486
REMARK  204  A    between atoms: _486  and  _487
REMARK  205  A    between atoms: _491  and  _492
REMARK  206  A    between atoms: _497  and  _499
REMARK  207  A    between atoms: _499  and  _500
REMARK  208  A    between atoms: _499  and  _502
REMARK  209  A    between atoms: _502  and  _503
REMARK  210  A    between atoms: _507  and  _508
REMARK  211  A    between atoms: _513  and  _515
REMARK  212  A    between atoms: _515  and  _516
REMARK  213  A    between atoms: _515  and  _518
REMARK  214  A    between atoms: _521  and  _523
REMARK  215  A    between atoms: _523  and  _524
REMARK  216  A    between atoms: _523  and  _526
REMARK  217  A    between atoms: _526  and  _527
REMARK  218  A    between atoms: _532  and  _534
REMARK  219  A    between atoms: _534  and  _535
REMARK  220  A    between atoms: _534  and  _537
REMARK  221  A    between atoms: _537  and  _538
REMARK  222  A    between atoms: _541  and  _543
REMARK  223  A    between atoms: _543  and  _544
REMARK  224  A    between atoms: _543  and  _546
REMARK  225  A    between atoms: _546  and  _547
REMARK  226  A    between atoms: _550  and  _552
REMARK  227  A    between atoms: _552  and  _553
REMARK  228  A    between atoms: _555  and  _557
REMARK  229  A    between atoms: _557  and  _558
REMARK  230  A    between atoms: _557  and  _560
REMARK  231  A    between atoms: _560  and  _561
REMARK  232  A    between atoms: _561  and  _562
REMARK  233  A    between atoms: _562  and  _563
REMARK  234  A    between atoms: _572  and  _574
REMARK  235  A    between atoms: _574  and  _575
REMARK  236  A    between atoms: _574  and  _577
REMARK  237  A    between atoms: _577  and  _578
REMARK                            x       y       z     vdW  Elec       q    Type
REMARK                         _______ _______ _______ _____ _____    ______ ____
ROOT
ATOM      1  O   HOH     1       8.009 -14.664 -18.241  0.00  0.00    +0.000 OA
ENDROOT
TORSDOF 0
REMARK  Name = ../refined-set-2016/2pwr/2pwr_pocket.pdb
REMARK  237 active torsions:
REMARK  status: ('A' for Active; 'I' for Inactive)
REMARK    1  A    between atoms: _1  and  _3
REMARK    2  A    between atoms: _3  and  _4
REMARK    3  A    between atoms: _3  and  _6
REMARK    4  A    between atoms: _6  and  _7
REMARK    5  A    between atoms: _7  and  _8
REMARK    6  A    between atoms: _8  and  _9
REMARK    7  A    between atoms: _18  and  _20
REMARK    8  A    between atoms: _20  and  _21
REMARK    9  A    between atoms: _20  and  _23
REMARK   10  A    between atoms: _23  and  _24
REMARK   11  A    between atoms: _27  and  _29
REMARK   12  A    between atoms: _29  and  _30
REMARK   13  A    between atoms: _29  and  _32
REMARK   14  A    between atoms: _32  and  _33
REMARK   15  A    between atoms: _36  and  _38
REMARK   16  A    between atoms: _38  and  _39
REMARK   17  A    between atoms: _38  and  _41
REMARK   18  A    between atoms: _41  and  _42
REMARK   19  A    between atoms: _45  and  _47
REMARK   20  A    between atoms: _47  and  _48
REMARK   21  A    between atoms: _47  and  _50
REMARK   22  A    between atoms: _50  and  _51
REMARK   23  A    between atoms: _54  and  _56
REMARK   24  A    between atoms: _56  and  _57
REMARK   25  A    between atoms: _59  and  _61
REMARK   26  A    between atoms: _61  and  _62
REMARK   27  A    between atoms: _65  and  _67
REMARK   28  A    between atoms: _67  and  _68
REMARK   29  A    between atoms: _67  and  _70
REMARK   30  A    between atoms: _70  and  _71
REMARK   31  A    between atoms: _74  and  _76
REMARK   32  A    between atoms: _76  and  _77
REMARK   33  A    between atoms: _76  and  _79
REMARK   34  A    between atoms: _79  and  _80
REMARK   35  A    between atoms: _83  and  _85
REMARK   36  A    between atoms: _85  and  _86
REMARK   37  A    between atoms: _85  and  _88
REMARK   38  A    between atoms: _88  and  _89
REMARK   39  A    between atoms: _92  and  _94
REMARK   40  A    between atoms: _94  and  _95
REMARK   41  A    between atoms: _94  and  _97
REMARK   42  A    between atoms: _100  and  _102
REMARK   43  A    between atoms: _102  and  _103
REMARK   44  A    between atoms: _102  and  _105
REMARK   45  A    between atoms: _105  and  _106
REMARK   46  A    between atoms: _106  and  _107
REMARK   47  A    between atoms: _107  and  _108
REMARK   48  A    between atoms: _108  and  _109
REMARK   49  A    between atoms: _113  and  _115
REMARK   50  A    between atoms: _115  and  _116
REMARK   51  A    between atoms: _115  and  _118
REMARK   52  A    between atoms: _118  and  _119
REMARK   53  A    between atoms: _119  and  _120
REMARK   54  A    between atoms: _122  and  _124
REMARK   55  A    between atoms: _124  and  _125
REMARK   56  A    between atoms: _124  and  _127
REMARK   57  A    between atoms: _127  and  _128
REMARK   58  A    between atoms: _131  and  _133
REMARK   59  A    between atoms: _133  and  _134
REMARK   60  A    between atoms: _136  and  _138
REMARK   61  A    between atoms: _138  and  _139
REMARK   62  A    between atoms: _141  and  _143
REMARK   63  A    between atoms: _143  and  _144
REMARK   64  A    between atoms: _143  and  _146
REMARK   65  A    between atoms: _146  and  _147
REMARK   66  A    between atoms: _150  and  _152
REMARK   67  A    between atoms: _152  and  _153
REMARK   68  A    between atoms: _155  and  _157
REMARK   69  A    between atoms: _157  and  _158
REMARK   70  A    between atoms: _160  and  _162
REMARK   71  A    between atoms: _162  and  _163
REMARK   72  A    between atoms: _162  and  _165
REMARK   73  A    between atoms: _165  and  _166
REMARK   74  A    between atoms: _172  and  _174
REMARK   75  A    between atoms: _174  and  _175
REMARK   76  A    between atoms: _174  and  _177
REMARK   77  A    between atoms: _177  and  _178
REMARK   78  A    between atoms: _181  and  _183
REMARK   79  A    between atoms: _183  and  _184
REMARK   80  A    between atoms: _183  and  _186
REMARK   81  A    between atoms: _189  and  _191
REMARK   82  A    between atoms: _191  and  _192
REMARK   83  A    between atoms: _191  and  _194
REMARK   84  A    between atoms: _194  and  _195
REMARK   85  A    between atoms: _198  and  _200
REMARK   86  A    between atoms: _200  and  _201
REMARK   87  A    between atoms: _200  and  _203
REMARK   88  A    between atoms: _203  and  _204
REMARK   89  A    between atoms: _208  and  _209
REMARK   90  A    between atoms: _214  and  _216
REMARK   91  A    between atoms: _216  and  _217
REMARK   92  A    between atoms: _216  and  _219
REMARK   93  A    between atoms: _222  and  _224
REMARK   94  A    between atoms: _224  and  _225
REMARK   95  A    between atoms: _224  and  _227
REMARK   96  A    between atoms: _227  and  _228
REMARK   97  A    between atoms: _233  and  _235
REMARK   98  A    between atoms: _235  and  _236
REMARK   99  A    between atoms: _235  and  _238
REMARK  100  A    between atoms: _238  and  _239
REMARK  101  A    between atoms: _242  and  _244
REMARK  102  A    between atoms: _244  and  _245
REMARK  103  A    between atoms: _244  and  _247
REMARK  104  A    between atoms: _247  and  _248
REMARK  105  A    between atoms: _251  and  _253
REMARK  106  A    between atoms: _253  and  _254
REMARK  107  A    between atoms: _256  and  _258
REMARK  108  A    between atoms: _258  and  _259
REMARK  109  A    between atoms: _258  and  _261
REMARK  110  A    between atoms: _261  and  _262
REMARK  111  A    between atoms: _262  and  _263
REMARK  112  A    between atoms: _263  and  _264
REMARK  113  A    between atoms: _273  and  _275
REMARK  114  A    between atoms: _275  and  _276
REMARK  115  A    between atoms: _275  and  _278
REMARK  116  A    between atoms: _278  and  _279
REMARK  117  A    between atoms: _284  and  _286
REMARK  118  A    between atoms: _286  and  _287
REMARK  119  A    between atoms: _286  and  _289
REMARK  120  A    between atoms: _289  and  _290
REMARK  121  A    between atoms: _290  and  _291
REMARK  122  A    between atoms: _291  and  _292
REMARK  123  A    between atoms: _301  and  _303
REMARK  124  A    between atoms: _303  and  _304
REMARK  125  A    between atoms: _303  and  _306
REMARK  126  A    between atoms: _306  and  _307
REMARK  127  A    between atoms: _310  and  _312
REMARK  128  A    between atoms: _312  and  _313
REMARK  129  A    between atoms: _312  and  _315
REMARK  130  A    between atoms: _315  and  _316
REMARK  131  A    between atoms: _319  and  _321
REMARK  132  A    between atoms: _321  and  _322
REMARK  133  A    between atoms: _321  and  _324
REMARK  134  A    between atoms: _324  and  _325
REMARK  135  A    between atoms: _328  and  _330
REMARK  136  A    between atoms: _330  and  _331
REMARK  137  A    between atoms: _330  and  _333
REMARK  138  A    between atoms: _333  and  _334
REMARK  139  A    between atoms: _337  and  _339
REMARK  140  A    between atoms: _339  and  _340
REMARK  141  A    between atoms: _339  and  _342
REMARK  142  A    between atoms: _342  and  _343
REMARK  143  A    between atoms: _346  and  _348
REMARK  144  A    between atoms: _348  and  _349
REMARK  145  A    between atoms: _351  and  _353
REMARK  146  A    between atoms: _353  and  _354
REMARK  147  A    between atoms: _357  and  _359
REMARK  148  A    between atoms: _359  and  _360
REMARK  149  A    between atoms: _359  and  _362
REMARK  150  A    between atoms: _362  and  _363
REMARK  151  A    between atoms: _366  and  _368
REMARK  152  A    between atoms: _368  and  _369
REMARK  153  A    between atoms: _368  and  _371
REMARK  154  A    between atoms: _371  and  _372
REMARK  155  A    between atoms: _375  and  _377
REMARK  156  A    between atoms: _377  and  _378
REMARK  157  A    between atoms: _377  and  _380
REMARK  158  A    between atoms: _380  and  _381
REMARK  159  A    between atoms: _384  and  _386
REMARK  160  A    between atoms: _386  and  _387
REMARK  161  A    between atoms: _386  and  _389
REMARK  162  A    between atoms: _392  and  _394
REMARK  163  A    between atoms: _394  and  _395
REMARK  164  A    between atoms: _394  and  _397
REMARK  165  A    between atoms: _397  and  _398
REMARK  166  A    between atoms: _398  and  _399
REMARK  167  A    between atoms: _399  and  _400
REMARK  168  A    between atoms: _400  and  _401
REMARK  169  A    between atoms: _405  and  _407
REMARK  170  A    between atoms: _407  and  _408
REMARK  171  A    between atoms: _407  and  _410
REMARK  172  A    between atoms: _410  and  _411
REMARK  173  A    between atoms: _411  and  _412
REMARK  174  A    between atoms: _414  and  _416
REMARK  175  A    between atoms: _416  and  _417
REMARK  176  A    between atoms: _416  and  _419
REMARK  177  A    between atoms: _419  and  _420
REMARK  178  A    between atoms: _423  and  _425
REMARK  179  A    between atoms: _425  and  _426
REMARK  180  A    between atoms: _428  and  _430
REMARK  181  A    between atoms: _430  and  _431
REMARK  182  A    between atoms: _433  and  _435
REMARK  183  A    between atoms: _435  and  _436
REMARK  184  A    between atoms: _435  and  _438
REMARK  185  A    between atoms: _438  and  _439
REMARK  186  A    between atoms: _442  and  _444
REMARK  187  A    between atoms: _444  and  _445
REMARK  188  A    between atoms: _447  and  _449
REMARK  189  A    between atoms: _449  and  _450
REMARK  190  A    between atoms: _452  and  _454
REMARK  191  A    between atoms: _454  and  _455
REMARK  192  A    between atoms: _454  and  _457
REMARK  193  A    between atoms: _457  and  _458
REMARK  194  A    between atoms: _464  and  _466
REMARK  195  A    between atoms: _466  and  _467
REMARK  196  A    between atoms: _466  and  _469
REMARK  197  A    between atoms: _469  and  _470
REMARK  198  A    between atoms: _473  and  _475
REMARK  199  A    between atoms: _475  and  _476
REMARK  200  A    between atoms: _475  and  _478
REMARK  201  A    between atoms: _481  and  _483
REMARK  202  A    between atoms: _483  and  _484
REMARK  203  A    between atoms: _483  and  _486
REMARK  204  A    between atoms: _486  and  _487
REMARK  205  A    between atoms: _491  and  _492
REMARK  206  A    between atoms: _497  and  _499
REMARK  207  A    between atoms: _499  and  _500
REMARK  208  A    between atoms: _499  and  _502
REMARK  209  A    between atoms: _502  and  _503
REMARK  210  A    between atoms: _507  and  _508
REMARK  211  A    between atoms: _513  and  _515
REMARK  212  A    between atoms: _515  and  _516
REMARK  213  A    between atoms: _515  and  _518
REMARK  214  A    between atoms: _521  and  _523
REMARK  215  A    between atoms: _523  and  _524
REMARK  216  A    between atoms: _523  and  _526
REMARK  217  A    between atoms: _526  and  _527
REMARK  218  A    between atoms: _532  and  _534
REMARK  219  A    between atoms: _534  and  _535
REMARK  220  A    between atoms: _534  and  _537
REMARK  221  A    between atoms: _537  and  _538
REMARK  222  A    between atoms: _541  and  _543
REMARK  223  A    between atoms: _543  and  _544
REMARK  224  A    between atoms: _543  and  _546
REMARK  225  A    between atoms: _546  and  _547
REMARK  226  A    between atoms: _550  and  _552
REMARK  227  A    between atoms: _552  and  _553
REMARK  228  A    between atoms: _555  and  _557
REMARK  229  A    between atoms: _557  and  _558
REMARK  230  A    between atoms: _557  and  _560
REMARK  231  A    between atoms: _560  and  _561
REMARK  232  A    between atoms: _561  and  _562
REMARK  233  A    between atoms: _562  and  _563
REMARK  234  A    between atoms: _572  and  _574
REMARK  235  A    between atoms: _574  and  _575
REMARK  236  A    between atoms: _574  and  _577
REMARK  237  A    between atoms: _577  and  _578
REMARK                            x       y       z     vdW  Elec       q    Type
REMARK                         _______ _______ _______ _____ _____    ______ ____
ROOT
ATOM      1  O   HOH     1       8.108  -7.013 -17.461  0.00  0.00    +0.000 OA
ENDROOT
TORSDOF 0
REMARK  Name = ../refined-set-2016/2pwr/2pwr_pocket.pdb
REMARK  237 active torsions:
REMARK  status: ('A' for Active; 'I' for Inactive)
REMARK    1  A    between atoms: _1  and  _3
REMARK    2  A    between atoms: _3  and  _4
REMARK    3  A    between atoms: _3  and  _6
REMARK    4  A    between atoms: _6  and  _7
REMARK    5  A    between atoms: _7  and  _8
REMARK    6  A    between atoms: _8  and  _9
REMARK    7  A    between atoms: _18  and  _20
REMARK    8  A    between atoms: _20  and  _21
REMARK    9  A    between atoms: _20  and  _23
REMARK   10  A    between atoms: _23  and  _24
REMARK   11  A    between atoms: _27  and  _29
REMARK   12  A    between atoms: _29  and  _30
REMARK   13  A    between atoms: _29  and  _32
REMARK   14  A    between atoms: _32  and  _33
REMARK   15  A    between atoms: _36  and  _38
REMARK   16  A    between atoms: _38  and  _39
REMARK   17  A    between atoms: _38  and  _41
REMARK   18  A    between atoms: _41  and  _42
REMARK   19  A    between atoms: _45  and  _47
REMARK   20  A    between atoms: _47  and  _48
REMARK   21  A    between atoms: _47  and  _50
REMARK   22  A    between atoms: _50  and  _51
REMARK   23  A    between atoms: _54  and  _56
REMARK   24  A    between atoms: _56  and  _57
REMARK   25  A    between atoms: _59  and  _61
REMARK   26  A    between atoms: _61  and  _62
REMARK   27  A    between atoms: _65  and  _67
REMARK   28  A    between atoms: _67  and  _68
REMARK   29  A    between atoms: _67  and  _70
REMARK   30  A    between atoms: _70  and  _71
REMARK   31  A    between atoms: _74  and  _76
REMARK   32  A    between atoms: _76  and  _77
REMARK   33  A    between atoms: _76  and  _79
REMARK   34  A    between atoms: _79  and  _80
REMARK   35  A    between atoms: _83  and  _85
REMARK   36  A    between atoms: _85  and  _86
REMARK   37  A    between atoms: _85  and  _88
REMARK   38  A    between atoms: _88  and  _89
REMARK   39  A    between atoms: _92  and  _94
REMARK   40  A    between atoms: _94  and  _95
REMARK   41  A    between atoms: _94  and  _97
REMARK   42  A    between atoms: _100  and  _102
REMARK   43  A    between atoms: _102  and  _103
REMARK   44  A    between atoms: _102  and  _105
REMARK   45  A    between atoms: _105  and  _106
REMARK   46  A    between atoms: _106  and  _107
REMARK   47  A    between atoms: _107  and  _108
REMARK   48  A    between atoms: _108  and  _109
REMARK   49  A    between atoms: _113  and  _115
REMARK   50  A    between atoms: _115  and  _116
REMARK   51  A    between atoms: _115  and  _118
REMARK   52  A    between atoms: _118  and  _119
REMARK   53  A    between atoms: _119  and  _120
REMARK   54  A    between atoms: _122  and  _124
REMARK   55  A    between atoms: _124  and  _125
REMARK   56  A    between atoms: _124  and  _127
REMARK   57  A    between atoms: _127  and  _128
REMARK   58  A    between atoms: _131  and  _133
REMARK   59  A    between atoms: _133  and  _134
REMARK   60  A    between atoms: _136  and  _138
REMARK   61  A    between atoms: _138  and  _139
REMARK   62  A    between atoms: _141  and  _143
REMARK   63  A    between atoms: _143  and  _144
REMARK   64  A    between atoms: _143  and  _146
REMARK   65  A    between atoms: _146  and  _147
REMARK   66  A    between atoms: _150  and  _152
REMARK   67  A    between atoms: _152  and  _153
REMARK   68  A    between atoms: _155  and  _157
REMARK   69  A    between atoms: _157  and  _158
REMARK   70  A    between atoms: _160  and  _162
REMARK   71  A    between atoms: _162  and  _163
REMARK   72  A    between atoms: _162  and  _165
REMARK   73  A    between atoms: _165  and  _166
REMARK   74  A    between atoms: _172  and  _174
REMARK   75  A    between atoms: _174  and  _175
REMARK   76  A    between atoms: _174  and  _177
REMARK   77  A    between atoms: _177  and  _178
REMARK   78  A    between atoms: _181  and  _183
REMARK   79  A    between atoms: _183  and  _184
REMARK   80  A    between atoms: _183  and  _186
REMARK   81  A    between atoms: _189  and  _191
REMARK   82  A    between atoms: _191  and  _192
REMARK   83  A    between atoms: _191  and  _194
REMARK   84  A    between atoms: _194  and  _195
REMARK   85  A    between atoms: _198  and  _200
REMARK   86  A    between atoms: _200  and  _201
REMARK   87  A    between atoms: _200  and  _203
REMARK   88  A    between atoms: _203  and  _204
REMARK   89  A    between atoms: _208  and  _209
REMARK   90  A    between atoms: _214  and  _216
REMARK   91  A    between atoms: _216  and  _217
REMARK   92  A    between atoms: _216  and  _219
REMARK   93  A    between atoms: _222  and  _224
REMARK   94  A    between atoms: _224  and  _225
REMARK   95  A    between atoms: _224  and  _227
REMARK   96  A    between atoms: _227  and  _228
REMARK   97  A    between atoms: _233  and  _235
REMARK   98  A    between atoms: _235  and  _236
REMARK   99  A    between atoms: _235  and  _238
REMARK  100  A    between atoms: _238  and  _239
REMARK  101  A    between atoms: _242  and  _244
REMARK  102  A    between atoms: _244  and  _245
REMARK  103  A    between atoms: _244  and  _247
REMARK  104  A    between atoms: _247  and  _248
REMARK  105  A    between atoms: _251  and  _253
REMARK  106  A    between atoms: _253  and  _254
REMARK  107  A    between atoms: _256  and  _258
REMARK  108  A    between atoms: _258  and  _259
REMARK  109  A    between atoms: _258  and  _261
REMARK  110  A    between atoms: _261  and  _262
REMARK  111  A    between atoms: _262  and  _263
REMARK  112  A    between atoms: _263  and  _264
REMARK  113  A    between atoms: _273  and  _275
REMARK  114  A    between atoms: _275  and  _276
REMARK  115  A    between atoms: _275  and  _278
REMARK  116  A    between atoms: _278  and  _279
REMARK  117  A    between atoms: _284  and  _286
REMARK  118  A    between atoms: _286  and  _287
REMARK  119  A    between atoms: _286  and  _289
REMARK  120  A    between atoms: _289  and  _290
REMARK  121  A    between atoms: _290  and  _291
REMARK  122  A    between atoms: _291  and  _292
REMARK  123  A    between atoms: _301  and  _303
REMARK  124  A    between atoms: _303  and  _304
REMARK  125  A    between atoms: _303  and  _306
REMARK  126  A    between atoms: _306  and  _307
REMARK  127  A    between atoms: _310  and  _312
REMARK  128  A    between atoms: _312  and  _313
REMARK  129  A    between atoms: _312  and  _315
REMARK  130  A    between atoms: _315  and  _316
REMARK  131  A    between atoms: _319  and  _321
REMARK  132  A    between atoms: _321  and  _322
REMARK  133  A    between atoms: _321  and  _324
REMARK  134  A    between atoms: _324  and  _325
REMARK  135  A    between atoms: _328  and  _330
REMARK  136  A    between atoms: _330  and  _331
REMARK  137  A    between atoms: _330  and  _333
REMARK  138  A    between atoms: _333  and  _334
REMARK  139  A    between atoms: _337  and  _339
REMARK  140  A    between atoms: _339  and  _340
REMARK  141  A    between atoms: _339  and  _342
REMARK  142  A    between atoms: _342  and  _343
REMARK  143  A    between atoms: _346  and  _348
REMARK  144  A    between atoms: _348  and  _349
REMARK  145  A    between atoms: _351  and  _353
REMARK  146  A    between atoms: _353  and  _354
REMARK  147  A    between atoms: _357  and  _359
REMARK  148  A    between atoms: _359  and  _360
REMARK  149  A    between atoms: _359  and  _362
REMARK  150  A    between atoms: _362  and  _363
REMARK  151  A    between atoms: _366  and  _368
REMARK  152  A    between atoms: _368  and  _369
REMARK  153  A    between atoms: _368  and  _371
REMARK  154  A    between atoms: _371  and  _372
REMARK  155  A    between atoms: _375  and  _377
REMARK  156  A    between atoms: _377  and  _378
REMARK  157  A    between atoms: _377  and  _380
REMARK  158  A    between atoms: _380  and  _381
REMARK  159  A    between atoms: _384  and  _386
REMARK  160  A    between atoms: _386  and  _387
REMARK  161  A    between atoms: _386  and  _389
REMARK  162  A    between atoms: _392  and  _394
REMARK  163  A    between atoms: _394  and  _395
REMARK  164  A    between atoms: _394  and  _397
REMARK  165  A    between atoms: _397  and  _398
REMARK  166  A    between atoms: _398  and  _399
REMARK  167  A    between atoms: _399  and  _400
REMARK  168  A    between atoms: _400  and  _401
REMARK  169  A    between atoms: _405  and  _407
REMARK  170  A    between atoms: _407  and  _408
REMARK  171  A    between atoms: _407  and  _410
REMARK  172  A    between atoms: _410  and  _411
REMARK  173  A    between atoms: _411  and  _412
REMARK  174  A    between atoms: _414  and  _416
REMARK  175  A    between atoms: _416  and  _417
REMARK  176  A    between atoms: _416  and  _419
REMARK  177  A    between atoms: _419  and  _420
REMARK  178  A    between atoms: _423  and  _425
REMARK  179  A    between atoms: _425  and  _426
REMARK  180  A    between atoms: _428  and  _430
REMARK  181  A    between atoms: _430  and  _431
REMARK  182  A    between atoms: _433  and  _435
REMARK  183  A    between atoms: _435  and  _436
REMARK  184  A    between atoms: _435  and  _438
REMARK  185  A    between atoms: _438  and  _439
REMARK  186  A    between atoms: _442  and  _444
REMARK  187  A    between atoms: _444  and  _445
REMARK  188  A    between atoms: _447  and  _449
REMARK  189  A    between atoms: _449  and  _450
REMARK  190  A    between atoms: _452  and  _454
REMARK  191  A    between atoms: _454  and  _455
REMARK  192  A    between atoms: _454  and  _457
REMARK  193  A    between atoms: _457  and  _458
REMARK  194  A    between atoms: _464  and  _466
REMARK  195  A    between atoms: _466  and  _467
REMARK  196  A    between atoms: _466  and  _469
REMARK  197  A    between atoms: _469  and  _470
REMARK  198  A    between atoms: _473  and  _475
REMARK  199  A    between atoms: _475  and  _476
REMARK  200  A    between atoms: _475  and  _478
REMARK  201  A    between atoms: _481  and  _483
REMARK  202  A    between atoms: _483  and  _484
REMARK  203  A    between atoms: _483  and  _486
REMARK  204  A    between atoms: _486  and  _487
REMARK  205  A    between atoms: _491  and  _492
REMARK  206  A    between atoms: _497  and  _499
REMARK  207  A    between atoms: _499  and  _500
REMARK  208  A    between atoms: _499  and  _502
REMARK  209  A    between atoms: _502  and  _503
REMARK  210  A    between atoms: _507  and  _508
REMARK  211  A    between atoms: _513  and  _515
REMARK  212  A    between atoms: _515  and  _516
REMARK  213  A    between atoms: _515  and  _518
REMARK  214  A    between atoms: _521  and  _523
REMARK  215  A    between atoms: _523  and  _524
REMARK  216  A    between atoms: _523  and  _526
REMARK  217  A    between atoms: _526  and  _527
REMARK  218  A    between atoms: _532  and  _534
REMARK  219  A    between atoms: _534  and  _535
REMARK  220  A    between atoms: _534  and  _537
REMARK  221  A    between atoms: _537  and  _538
REMARK  222  A    between atoms: _541  and  _543
REMARK  223  A    between atoms: _543  and  _544
REMARK  224  A    between atoms: _543  and  _546
REMARK  225  A    between atoms: _546  and  _547
REMARK  226  A    between atoms: _550  and  _552
REMARK  227  A    between atoms: _552  and  _553
REMARK  228  A    between atoms: _555  and  _557
REMARK  229  A    between atoms: _557  and  _558
REMARK  230  A    between atoms: _557  and  _560
REMARK  231  A    between atoms: _560  and  _561
REMARK  232  A    between atoms: _561  and  _562
REMARK  233  A    between atoms: _562  and  _563
REMARK  234  A    between atoms: _572  and  _574
REMARK  235  A    between atoms: _574  and  _575
REMARK  236  A    between atoms: _574  and  _577
REMARK  237  A    between atoms: _577  and  _578
REMARK                            x       y       z     vdW  Elec       q    Type
REMARK                         _______ _______ _______ _____ _____    ______ ____
ROOT
ATOM      1  O   HOH     1       5.968  -5.834 -13.110  0.00  0.00    +0.000 OA
ENDROOT
TORSDOF 0
REMARK  Name = ../refined-set-2016/2pwr/2pwr_pocket.pdb
REMARK  237 active torsions:
REMARK  status: ('A' for Active; 'I' for Inactive)
REMARK    1  A    between atoms: _1  and  _3
REMARK    2  A    between atoms: _3  and  _4
REMARK    3  A    between atoms: _3  and  _6
REMARK    4  A    between atoms: _6  and  _7
REMARK    5  A    between atoms: _7  and  _8
REMARK    6  A    between atoms: _8  and  _9
REMARK    7  A    between atoms: _18  and  _20
REMARK    8  A    between atoms: _20  and  _21
REMARK    9  A    between atoms: _20  and  _23
REMARK   10  A    between atoms: _23  and  _24
REMARK   11  A    between atoms: _27  and  _29
REMARK   12  A    between atoms: _29  and  _30
REMARK   13  A    between atoms: _29  and  _32
REMARK   14  A    between atoms: _32  and  _33
REMARK   15  A    between atoms: _36  and  _38
REMARK   16  A    between atoms: _38  and  _39
REMARK   17  A    between atoms: _38  and  _41
REMARK   18  A    between atoms: _41  and  _42
REMARK   19  A    between atoms: _45  and  _47
REMARK   20  A    between atoms: _47  and  _48
REMARK   21  A    between atoms: _47  and  _50
REMARK   22  A    between atoms: _50  and  _51
REMARK   23  A    between atoms: _54  and  _56
REMARK   24  A    between atoms: _56  and  _57
REMARK   25  A    between atoms: _59  and  _61
REMARK   26  A    between atoms: _61  and  _62
REMARK   27  A    between atoms: _65  and  _67
REMARK   28  A    between atoms: _67  and  _68
REMARK   29  A    between atoms: _67  and  _70
REMARK   30  A    between atoms: _70  and  _71
REMARK   31  A    between atoms: _74  and  _76
REMARK   32  A    between atoms: _76  and  _77
REMARK   33  A    between atoms: _76  and  _79
REMARK   34  A    between atoms: _79  and  _80
REMARK   35  A    between atoms: _83  and  _85
REMARK   36  A    between atoms: _85  and  _86
REMARK   37  A    between atoms: _85  and  _88
REMARK   38  A    between atoms: _88  and  _89
REMARK   39  A    between atoms: _92  and  _94
REMARK   40  A    between atoms: _94  and  _95
REMARK   41  A    between atoms: _94  and  _97
REMARK   42  A    between atoms: _100  and  _102
REMARK   43  A    between atoms: _102  and  _103
REMARK   44  A    between atoms: _102  and  _105
REMARK   45  A    between atoms: _105  and  _106
REMARK   46  A    between atoms: _106  and  _107
REMARK   47  A    between atoms: _107  and  _108
REMARK   48  A    between atoms: _108  and  _109
REMARK   49  A    between atoms: _113  and  _115
REMARK   50  A    between atoms: _115  and  _116
REMARK   51  A    between atoms: _115  and  _118
REMARK   52  A    between atoms: _118  and  _119
REMARK   53  A    between atoms: _119  and  _120
REMARK   54  A    between atoms: _122  and  _124
REMARK   55  A    between atoms: _124  and  _125
REMARK   56  A    between atoms: _124  and  _127
REMARK   57  A    between atoms: _127  and  _128
REMARK   58  A    between atoms: _131  and  _133
REMARK   59  A    between atoms: _133  and  _134
REMARK   60  A    between atoms: _136  and  _138
REMARK   61  A    between atoms: _138  and  _139
REMARK   62  A    between atoms: _141  and  _143
REMARK   63  A    between atoms: _143  and  _144
REMARK   64  A    between atoms: _143  and  _146
REMARK   65  A    between atoms: _146  and  _147
REMARK   66  A    between atoms: _150  and  _152
REMARK   67  A    between atoms: _152  and  _153
REMARK   68  A    between atoms: _155  and  _157
REMARK   69  A    between atoms: _157  and  _158
REMARK   70  A    between atoms: _160  and  _162
REMARK   71  A    between atoms: _162  and  _163
REMARK   72  A    between atoms: _162  and  _165
REMARK   73  A    between atoms: _165  and  _166
REMARK   74  A    between atoms: _172  and  _174
REMARK   75  A    between atoms: _174  and  _175
REMARK   76  A    between atoms: _174  and  _177
REMARK   77  A    between atoms: _177  and  _178
REMARK   78  A    between atoms: _181  and  _183
REMARK   79  A    between atoms: _183  and  _184
REMARK   80  A    between atoms: _183  and  _186
REMARK   81  A    between atoms: _189  and  _191
REMARK   82  A    between atoms: _191  and  _192
REMARK   83  A    between atoms: _191  and  _194
REMARK   84  A    between atoms: _194  and  _195
REMARK   85  A    between atoms: _198  and  _200
REMARK   86  A    between atoms: _200  and  _201
REMARK   87  A    between atoms: _200  and  _203
REMARK   88  A    between atoms: _203  and  _204
REMARK   89  A    between atoms: _208  and  _209
REMARK   90  A    between atoms: _214  and  _216
REMARK   91  A    between atoms: _216  and  _217
REMARK   92  A    between atoms: _216  and  _219
REMARK   93  A    between atoms: _222  and  _224
REMARK   94  A    between atoms: _224  and  _225
REMARK   95  A    between atoms: _224  and  _227
REMARK   96  A    between atoms: _227  and  _228
REMARK   97  A    between atoms: _233  and  _235
REMARK   98  A    between atoms: _235  and  _236
REMARK   99  A    between atoms: _235  and  _238
REMARK  100  A    between atoms: _238  and  _239
REMARK  101  A    between atoms: _242  and  _244
REMARK  102  A    between atoms: _244  and  _245
REMARK  103  A    between atoms: _244  and  _247
REMARK  104  A    between atoms: _247  and  _248
REMARK  105  A    between atoms: _251  and  _253
REMARK  106  A    between atoms: _253  and  _254
REMARK  107  A    between atoms: _256  and  _258
REMARK  108  A    between atoms: _258  and  _259
REMARK  109  A    between atoms: _258  and  _261
REMARK  110  A    between atoms: _261  and  _262
REMARK  111  A    between atoms: _262  and  _263
REMARK  112  A    between atoms: _263  and  _264
REMARK  113  A    between atoms: _273  and  _275
REMARK  114  A    between atoms: _275  and  _276
REMARK  115  A    between atoms: _275  and  _278
REMARK  116  A    between atoms: _278  and  _279
REMARK  117  A    between atoms: _284  and  _286
REMARK  118  A    between atoms: _286  and  _287
REMARK  119  A    between atoms: _286  and  _289
REMARK  120  A    between atoms: _289  and  _290
REMARK  121  A    between atoms: _290  and  _291
REMARK  122  A    between atoms: _291  and  _292
REMARK  123  A    between atoms: _301  and  _303
REMARK  124  A    between atoms: _303  and  _304
REMARK  125  A    between atoms: _303  and  _306
REMARK  126  A    between atoms: _306  and  _307
REMARK  127  A    between atoms: _310  and  _312
REMARK  128  A    between atoms: _312  and  _313
REMARK  129  A    between atoms: _312  and  _315
REMARK  130  A    between atoms: _315  and  _316
REMARK  131  A    between atoms: _319  and  _321
REMARK  132  A    between atoms: _321  and  _322
REMARK  133  A    between atoms: _321  and  _324
REMARK  134  A    between atoms: _324  and  _325
REMARK  135  A    between atoms: _328  and  _330
REMARK  136  A    between atoms: _330  and  _331
REMARK  137  A    between atoms: _330  and  _333
REMARK  138  A    between atoms: _333  and  _334
REMARK  139  A    between atoms: _337  and  _339
REMARK  140  A    between atoms: _339  and  _340
REMARK  141  A    between atoms: _339  and  _342
REMARK  142  A    between atoms: _342  and  _343
REMARK  143  A    between atoms: _346  and  _348
REMARK  144  A    between atoms: _348  and  _349
REMARK  145  A    between atoms: _351  and  _353
REMARK  146  A    between atoms: _353  and  _354
REMARK  147  A    between atoms: _357  and  _359
REMARK  148  A    between atoms: _359  and  _360
REMARK  149  A    between atoms: _359  and  _362
REMARK  150  A    between atoms: _362  and  _363
REMARK  151  A    between atoms: _366  and  _368
REMARK  152  A    between atoms: _368  and  _369
REMARK  153  A    between atoms: _368  and  _371
REMARK  154  A    between atoms: _371  and  _372
REMARK  155  A    between atoms: _375  and  _377
REMARK  156  A    between atoms: _377  and  _378
REMARK  157  A    between atoms: _377  and  _380
REMARK  158  A    between atoms: _380  and  _381
REMARK  159  A    between atoms: _384  and  _386
REMARK  160  A    between atoms: _386  and  _387
REMARK  161  A    between atoms: _386  and  _389
REMARK  162  A    between atoms: _392  and  _394
REMARK  163  A    between atoms: _394  and  _395
REMARK  164  A    between atoms: _394  and  _397
REMARK  165  A    between atoms: _397  and  _398
REMARK  166  A    between atoms: _398  and  _399
REMARK  167  A    between atoms: _399  and  _400
REMARK  168  A    between atoms: _400  and  _401
REMARK  169  A    between atoms: _405  and  _407
REMARK  170  A    between atoms: _407  and  _408
REMARK  171  A    between atoms: _407  and  _410
REMARK  172  A    between atoms: _410  and  _411
REMARK  173  A    between atoms: _411  and  _412
REMARK  174  A    between atoms: _414  and  _416
REMARK  175  A    between atoms: _416  and  _417
REMARK  176  A    between atoms: _416  and  _419
REMARK  177  A    between atoms: _419  and  _420
REMARK  178  A    between atoms: _423  and  _425
REMARK  179  A    between atoms: _425  and  _426
REMARK  180  A    between atoms: _428  and  _430
REMARK  181  A    between atoms: _430  and  _431
REMARK  182  A    between atoms: _433  and  _435
REMARK  183  A    between atoms: _435  and  _436
REMARK  184  A    between atoms: _435  and  _438
REMARK  185  A    between atoms: _438  and  _439
REMARK  186  A    between atoms: _442  and  _444
REMARK  187  A    between atoms: _444  and  _445
REMARK  188  A    between atoms: _447  and  _449
REMARK  189  A    between atoms: _449  and  _450
REMARK  190  A    between atoms: _452  and  _454
REMARK  191  A    between atoms: _454  and  _455
REMARK  192  A    between atoms: _454  and  _457
REMARK  193  A    between atoms: _457  and  _458
REMARK  194  A    between atoms: _464  and  _466
REMARK  195  A    between atoms: _466  and  _467
REMARK  196  A    between atoms: _466  and  _469
REMARK  197  A    between atoms: _469  and  _470
REMARK  198  A    between atoms: _473  and  _475
REMARK  199  A    between atoms: _475  and  _476
REMARK  200  A    between atoms: _475  and  _478
REMARK  201  A    between atoms: _481  and  _483
REMARK  202  A    between atoms: _483  and  _484
REMARK  203  A    between atoms: _483  and  _486
REMARK  204  A    between atoms: _486  and  _487
REMARK  205  A    between atoms: _491  and  _492
REMARK  206  A    between atoms: _497  and  _499
REMARK  207  A    between atoms: _499  and  _500
REMARK  208  A    between atoms: _499  and  _502
REMARK  209  A    between atoms: _502  and  _503
REMARK  210  A    between atoms: _507  and  _508
REMARK  211  A    between atoms: _513  and  _515
REMARK  212  A    between atoms: _515  and  _516
REMARK  213  A    between atoms: _515  and  _518
REMARK  214  A    between atoms: _521  and  _523
REMARK  215  A    between atoms: _523  and  _524
REMARK  216  A    between atoms: _523  and  _526
REMARK  217  A    between atoms: _526  and  _527
REMARK  218  A    between atoms: _532  and  _534
REMARK  219  A    between atoms: _534  and  _535
REMARK  220  A    between atoms: _534  and  _537
REMARK  221  A    between atoms: _537  and  _538
REMARK  222  A    between atoms: _541  and  _543
REMARK  223  A    between atoms: _543  and  _544
REMARK  224  A    between atoms: _543  and  _546
REMARK  225  A    between atoms: _546  and  _547
REMARK  226  A    between atoms: _550  and  _552
REMARK  227  A    between atoms: _552  and  _553
REMARK  228  A    between atoms: _555  and  _557
REMARK  229  A    between atoms: _557  and  _558
REMARK  230  A    between atoms: _557  and  _560
REMARK  231  A    between atoms: _560  and  _561
REMARK  232  A    between atoms: _561  and  _562
REMARK  233  A    between atoms: _562  and  _563
REMARK  234  A    between atoms: _572  and  _574
REMARK  235  A    between atoms: _574  and  _575
REMARK  236  A    between atoms: _574  and  _577
REMARK  237  A    between atoms: _577  and  _578
REMARK                            x       y       z     vdW  Elec       q    Type
REMARK                         _______ _______ _______ _____ _____    ______ ____
ROOT
ATOM      1  O   HOH     1      16.351 -26.065 -12.060  0.00  0.00    +0.000 OA
ENDROOT
TORSDOF 0
REMARK  Name = ../refined-set-2016/2pwr/2pwr_pocket.pdb
REMARK  237 active torsions:
REMARK  status: ('A' for Active; 'I' for Inactive)
REMARK    1  A    between atoms: _1  and  _3
REMARK    2  A    between atoms: _3  and  _4
REMARK    3  A    between atoms: _3  and  _6
REMARK    4  A    between atoms: _6  and  _7
REMARK    5  A    between atoms: _7  and  _8
REMARK    6  A    between atoms: _8  and  _9
REMARK    7  A    between atoms: _18  and  _20
REMARK    8  A    between atoms: _20  and  _21
REMARK    9  A    between atoms: _20  and  _23
REMARK   10  A    between atoms: _23  and  _24
REMARK   11  A    between atoms: _27  and  _29
REMARK   12  A    between atoms: _29  and  _30
REMARK   13  A    between atoms: _29  and  _32
REMARK   14  A    between atoms: _32  and  _33
REMARK   15  A    between atoms: _36  and  _38
REMARK   16  A    between atoms: _38  and  _39
REMARK   17  A    between atoms: _38  and  _41
REMARK   18  A    between atoms: _41  and  _42
REMARK   19  A    between atoms: _45  and  _47
REMARK   20  A    between atoms: _47  and  _48
REMARK   21  A    between atoms: _47  and  _50
REMARK   22  A    between atoms: _50  and  _51
REMARK   23  A    between atoms: _54  and  _56
REMARK   24  A    between atoms: _56  and  _57
REMARK   25  A    between atoms: _59  and  _61
REMARK   26  A    between atoms: _61  and  _62
REMARK   27  A    between atoms: _65  and  _67
REMARK   28  A    between atoms: _67  and  _68
REMARK   29  A    between atoms: _67  and  _70
REMARK   30  A    between atoms: _70  and  _71
REMARK   31  A    between atoms: _74  and  _76
REMARK   32  A    between atoms: _76  and  _77
REMARK   33  A    between atoms: _76  and  _79
REMARK   34  A    between atoms: _79  and  _80
REMARK   35  A    between atoms: _83  and  _85
REMARK   36  A    between atoms: _85  and  _86
REMARK   37  A    between atoms: _85  and  _88
REMARK   38  A    between atoms: _88  and  _89
REMARK   39  A    between atoms: _92  and  _94
REMARK   40  A    between atoms: _94  and  _95
REMARK   41  A    between atoms: _94  and  _97
REMARK   42  A    between atoms: _100  and  _102
REMARK   43  A    between atoms: _102  and  _103
REMARK   44  A    between atoms: _102  and  _105
REMARK   45  A    between atoms: _105  and  _106
REMARK   46  A    between atoms: _106  and  _107
REMARK   47  A    between atoms: _107  and  _108
REMARK   48  A    between atoms: _108  and  _109
REMARK   49  A    between atoms: _113  and  _115
REMARK   50  A    between atoms: _115  and  _116
REMARK   51  A    between atoms: _115  and  _118
REMARK   52  A    between atoms: _118  and  _119
REMARK   53  A    between atoms: _119  and  _120
REMARK   54  A    between atoms: _122  and  _124
REMARK   55  A    between atoms: _124  and  _125
REMARK   56  A    between atoms: _124  and  _127
REMARK   57  A    between atoms: _127  and  _128
REMARK   58  A    between atoms: _131  and  _133
REMARK   59  A    between atoms: _133  and  _134
REMARK   60  A    between atoms: _136  and  _138
REMARK   61  A    between atoms: _138  and  _139
REMARK   62  A    between atoms: _141  and  _143
REMARK   63  A    between atoms: _143  and  _144
REMARK   64  A    between atoms: _143  and  _146
REMARK   65  A    between atoms: _146  and  _147
REMARK   66  A    between atoms: _150  and  _152
REMARK   67  A    between atoms: _152  and  _153
REMARK   68  A    between atoms: _155  and  _157
REMARK   69  A    between atoms: _157  and  _158
REMARK   70  A    between atoms: _160  and  _162
REMARK   71  A    between atoms: _162  and  _163
REMARK   72  A    between atoms: _162  and  _165
REMARK   73  A    between atoms: _165  and  _166
REMARK   74  A    between atoms: _172  and  _174
REMARK   75  A    between atoms: _174  and  _175
REMARK   76  A    between atoms: _174  and  _177
REMARK   77  A    between atoms: _177  and  _178
REMARK   78  A    between atoms: _181  and  _183
REMARK   79  A    between atoms: _183  and  _184
REMARK   80  A    between atoms: _183  and  _186
REMARK   81  A    between atoms: _189  and  _191
REMARK   82  A    between atoms: _191  and  _192
REMARK   83  A    between atoms: _191  and  _194
REMARK   84  A    between atoms: _194  and  _195
REMARK   85  A    between atoms: _198  and  _200
REMARK   86  A    between atoms: _200  and  _201
REMARK   87  A    between atoms: _200  and  _203
REMARK   88  A    between atoms: _203  and  _204
REMARK   89  A    between atoms: _208  and  _209
REMARK   90  A    between atoms: _214  and  _216
REMARK   91  A    between atoms: _216  and  _217
REMARK   92  A    between atoms: _216  and  _219
REMARK   93  A    between atoms: _222  and  _224
REMARK   94  A    between atoms: _224  and  _225
REMARK   95  A    between atoms: _224  and  _227
REMARK   96  A    between atoms: _227  and  _228
REMARK   97  A    between atoms: _233  and  _235
REMARK   98  A    between atoms: _235  and  _236
REMARK   99  A    between atoms: _235  and  _238
REMARK  100  A    between atoms: _238  and  _239
REMARK  101  A    between atoms: _242  and  _244
REMARK  102  A    between atoms: _244  and  _245
REMARK  103  A    between atoms: _244  and  _247
REMARK  104  A    between atoms: _247  and  _248
REMARK  105  A    between atoms: _251  and  _253
REMARK  106  A    between atoms: _253  and  _254
REMARK  107  A    between atoms: _256  and  _258
REMARK  108  A    between atoms: _258  and  _259
REMARK  109  A    between atoms: _258  and  _261
REMARK  110  A    between atoms: _261  and  _262
REMARK  111  A    between atoms: _262  and  _263
REMARK  112  A    between atoms: _263  and  _264
REMARK  113  A    between atoms: _273  and  _275
REMARK  114  A    between atoms: _275  and  _276
REMARK  115  A    between atoms: _275  and  _278
REMARK  116  A    between atoms: _278  and  _279
REMARK  117  A    between atoms: _284  and  _286
REMARK  118  A    between atoms: _286  and  _287
REMARK  119  A    between atoms: _286  and  _289
REMARK  120  A    between atoms: _289  and  _290
REMARK  121  A    between atoms: _290  and  _291
REMARK  122  A    between atoms: _291  and  _292
REMARK  123  A    between atoms: _301  and  _303
REMARK  124  A    between atoms: _303  and  _304
REMARK  125  A    between atoms: _303  and  _306
REMARK  126  A    between atoms: _306  and  _307
REMARK  127  A    between atoms: _310  and  _312
REMARK  128  A    between atoms: _312  and  _313
REMARK  129  A    between atoms: _312  and  _315
REMARK  130  A    between atoms: _315  and  _316
REMARK  131  A    between atoms: _319  and  _321
REMARK  132  A    between atoms: _321  and  _322
REMARK  133  A    between atoms: _321  and  _324
REMARK  134  A    between atoms: _324  and  _325
REMARK  135  A    between atoms: _328  and  _330
REMARK  136  A    between atoms: _330  and  _331
REMARK  137  A    between atoms: _330  and  _333
REMARK  138  A    between atoms: _333  and  _334
REMARK  139  A    between atoms: _337  and  _339
REMARK  140  A    between atoms: _339  and  _340
REMARK  141  A    between atoms: _339  and  _342
REMARK  142  A    between atoms: _342  and  _343
REMARK  143  A    between atoms: _346  and  _348
REMARK  144  A    between atoms: _348  and  _349
REMARK  145  A    between atoms: _351  and  _353
REMARK  146  A    between atoms: _353  and  _354
REMARK  147  A    between atoms: _357  and  _359
REMARK  148  A    between atoms: _359  and  _360
REMARK  149  A    between atoms: _359  and  _362
REMARK  150  A    between atoms: _362  and  _363
REMARK  151  A    between atoms: _366  and  _368
REMARK  152  A    between atoms: _368  and  _369
REMARK  153  A    between atoms: _368  and  _371
REMARK  154  A    between atoms: _371  and  _372
REMARK  155  A    between atoms: _375  and  _377
REMARK  156  A    between atoms: _377  and  _378
REMARK  157  A    between atoms: _377  and  _380
REMARK  158  A    between atoms: _380  and  _381
REMARK  159  A    between atoms: _384  and  _386
REMARK  160  A    between atoms: _386  and  _387
REMARK  161  A    between atoms: _386  and  _389
REMARK  162  A    between atoms: _392  and  _394
REMARK  163  A    between atoms: _394  and  _395
REMARK  164  A    between atoms: _394  and  _397
REMARK  165  A    between atoms: _397  and  _398
REMARK  166  A    between atoms: _398  and  _399
REMARK  167  A    between atoms: _399  and  _400
REMARK  168  A    between atoms: _400  and  _401
REMARK  169  A    between atoms: _405  and  _407
REMARK  170  A    between atoms: _407  and  _408
REMARK  171  A    between atoms: _407  and  _410
REMARK  172  A    between atoms: _410  and  _411
REMARK  173  A    between atoms: _411  and  _412
REMARK  174  A    between atoms: _414  and  _416
REMARK  175  A    between atoms: _416  and  _417
REMARK  176  A    between atoms: _416  and  _419
REMARK  177  A    between atoms: _419  and  _420
REMARK  178  A    between atoms: _423  and  _425
REMARK  179  A    between atoms: _425  and  _426
REMARK  180  A    between atoms: _428  and  _430
REMARK  181  A    between atoms: _430  and  _431
REMARK  182  A    between atoms: _433  and  _435
REMARK  183  A    between atoms: _435  and  _436
REMARK  184  A    between atoms: _435  and  _438
REMARK  185  A    between atoms: _438  and  _439
REMARK  186  A    between atoms: _442  and  _444
REMARK  187  A    between atoms: _444  and  _445
REMARK  188  A    between atoms: _447  and  _449
REMARK  189  A    between atoms: _449  and  _450
REMARK  190  A    between atoms: _452  and  _454
REMARK  191  A    between atoms: _454  and  _455
REMARK  192  A    between atoms: _454  and  _457
REMARK  193  A    between atoms: _457  and  _458
REMARK  194  A    between atoms: _464  and  _466
REMARK  195  A    between atoms: _466  and  _467
REMARK  196  A    between atoms: _466  and  _469
REMARK  197  A    between atoms: _469  and  _470
REMARK  198  A    between atoms: _473  and  _475
REMARK  199  A    between atoms: _475  and  _476
REMARK  200  A    between atoms: _475  and  _478
REMARK  201  A    between atoms: _481  and  _483
REMARK  202  A    between atoms: _483  and  _484
REMARK  203  A    between atoms: _483  and  _486
REMARK  204  A    between atoms: _486  and  _487
REMARK  205  A    between atoms: _491  and  _492
REMARK  206  A    between atoms: _497  and  _499
REMARK  207  A    between atoms: _499  and  _500
REMARK  208  A    between atoms: _499  and  _502
REMARK  209  A    between atoms: _502  and  _503
REMARK  210  A    between atoms: _507  and  _508
REMARK  211  A    between atoms: _513  and  _515
REMARK  212  A    between atoms: _515  and  _516
REMARK  213  A    between atoms: _515  and  _518
REMARK  214  A    between atoms: _521  and  _523
REMARK  215  A    between atoms: _523  and  _524
REMARK  216  A    between atoms: _523  and  _526
REMARK  217  A    between atoms: _526  and  _527
REMARK  218  A    between atoms: _532  and  _534
REMARK  219  A    between atoms: _534  and  _535
REMARK  220  A    between atoms: _534  and  _537
REMARK  221  A    between atoms: _537  and  _538
REMARK  222  A    between atoms: _541  and  _543
REMARK  223  A    between atoms: _543  and  _544
REMARK  224  A    between atoms: _543  and  _546
REMARK  225  A    between atoms: _546  and  _547
REMARK  226  A    between atoms: _550  and  _552
REMARK  227  A    between atoms: _552  and  _553
REMARK  228  A    between atoms: _555  and  _557
REMARK  229  A    between atoms: _557  and  _558
REMARK  230  A    between atoms: _557  and  _560
REMARK  231  A    between atoms: _560  and  _561
REMARK  232  A    between atoms: _561  and  _562
REMARK  233  A    between atoms: _562  and  _563
REMARK  234  A    between atoms: _572  and  _574
REMARK  235  A    between atoms: _574  and  _575
REMARK  236  A    between atoms: _574  and  _577
REMARK  237  A    between atoms: _577  and  _578
REMARK                            x       y       z     vdW  Elec       q    Type
REMARK                         _______ _______ _______ _____ _____    ______ ____
ROOT
ATOM      1  O   HOH     1      17.145 -27.112  -9.488  0.00  0.00    +0.000 OA
ENDROOT
TORSDOF 0
REMARK  Name = ../refined-set-2016/2pwr/2pwr_pocket.pdb
REMARK  237 active torsions:
REMARK  status: ('A' for Active; 'I' for Inactive)
REMARK    1  A    between atoms: _1  and  _3
REMARK    2  A    between atoms: _3  and  _4
REMARK    3  A    between atoms: _3  and  _6
REMARK    4  A    between atoms: _6  and  _7
REMARK    5  A    between atoms: _7  and  _8
REMARK    6  A    between atoms: _8  and  _9
REMARK    7  A    between atoms: _18  and  _20
REMARK    8  A    between atoms: _20  and  _21
REMARK    9  A    between atoms: _20  and  _23
REMARK   10  A    between atoms: _23  and  _24
REMARK   11  A    between atoms: _27  and  _29
REMARK   12  A    between atoms: _29  and  _30
REMARK   13  A    between atoms: _29  and  _32
REMARK   14  A    between atoms: _32  and  _33
REMARK   15  A    between atoms: _36  and  _38
REMARK   16  A    between atoms: _38  and  _39
REMARK   17  A    between atoms: _38  and  _41
REMARK   18  A    between atoms: _41  and  _42
REMARK   19  A    between atoms: _45  and  _47
REMARK   20  A    between atoms: _47  and  _48
REMARK   21  A    between atoms: _47  and  _50
REMARK   22  A    between atoms: _50  and  _51
REMARK   23  A    between atoms: _54  and  _56
REMARK   24  A    between atoms: _56  and  _57
REMARK   25  A    between atoms: _59  and  _61
REMARK   26  A    between atoms: _61  and  _62
REMARK   27  A    between atoms: _65  and  _67
REMARK   28  A    between atoms: _67  and  _68
REMARK   29  A    between atoms: _67  and  _70
REMARK   30  A    between atoms: _70  and  _71
REMARK   31  A    between atoms: _74  and  _76
REMARK   32  A    between atoms: _76  and  _77
REMARK   33  A    between atoms: _76  and  _79
REMARK   34  A    between atoms: _79  and  _80
REMARK   35  A    between atoms: _83  and  _85
REMARK   36  A    between atoms: _85  and  _86
REMARK   37  A    between atoms: _85  and  _88
REMARK   38  A    between atoms: _88  and  _89
REMARK   39  A    between atoms: _92  and  _94
REMARK   40  A    between atoms: _94  and  _95
REMARK   41  A    between atoms: _94  and  _97
REMARK   42  A    between atoms: _100  and  _102
REMARK   43  A    between atoms: _102  and  _103
REMARK   44  A    between atoms: _102  and  _105
REMARK   45  A    between atoms: _105  and  _106
REMARK   46  A    between atoms: _106  and  _107
REMARK   47  A    between atoms: _107  and  _108
REMARK   48  A    between atoms: _108  and  _109
REMARK   49  A    between atoms: _113  and  _115
REMARK   50  A    between atoms: _115  and  _116
REMARK   51  A    between atoms: _115  and  _118
REMARK   52  A    between atoms: _118  and  _119
REMARK   53  A    between atoms: _119  and  _120
REMARK   54  A    between atoms: _122  and  _124
REMARK   55  A    between atoms: _124  and  _125
REMARK   56  A    between atoms: _124  and  _127
REMARK   57  A    between atoms: _127  and  _128
REMARK   58  A    between atoms: _131  and  _133
REMARK   59  A    between atoms: _133  and  _134
REMARK   60  A    between atoms: _136  and  _138
REMARK   61  A    between atoms: _138  and  _139
REMARK   62  A    between atoms: _141  and  _143
REMARK   63  A    between atoms: _143  and  _144
REMARK   64  A    between atoms: _143  and  _146
REMARK   65  A    between atoms: _146  and  _147
REMARK   66  A    between atoms: _150  and  _152
REMARK   67  A    between atoms: _152  and  _153
REMARK   68  A    between atoms: _155  and  _157
REMARK   69  A    between atoms: _157  and  _158
REMARK   70  A    between atoms: _160  and  _162
REMARK   71  A    between atoms: _162  and  _163
REMARK   72  A    between atoms: _162  and  _165
REMARK   73  A    between atoms: _165  and  _166
REMARK   74  A    between atoms: _172  and  _174
REMARK   75  A    between atoms: _174  and  _175
REMARK   76  A    between atoms: _174  and  _177
REMARK   77  A    between atoms: _177  and  _178
REMARK   78  A    between atoms: _181  and  _183
REMARK   79  A    between atoms: _183  and  _184
REMARK   80  A    between atoms: _183  and  _186
REMARK   81  A    between atoms: _189  and  _191
REMARK   82  A    between atoms: _191  and  _192
REMARK   83  A    between atoms: _191  and  _194
REMARK   84  A    between atoms: _194  and  _195
REMARK   85  A    between atoms: _198  and  _200
REMARK   86  A    between atoms: _200  and  _201
REMARK   87  A    between atoms: _200  and  _203
REMARK   88  A    between atoms: _203  and  _204
REMARK   89  A    between atoms: _208  and  _209
REMARK   90  A    between atoms: _214  and  _216
REMARK   91  A    between atoms: _216  and  _217
REMARK   92  A    between atoms: _216  and  _219
REMARK   93  A    between atoms: _222  and  _224
REMARK   94  A    between atoms: _224  and  _225
REMARK   95  A    between atoms: _224  and  _227
REMARK   96  A    between atoms: _227  and  _228
REMARK   97  A    between atoms: _233  and  _235
REMARK   98  A    between atoms: _235  and  _236
REMARK   99  A    between atoms: _235  and  _238
REMARK  100  A    between atoms: _238  and  _239
REMARK  101  A    between atoms: _242  and  _244
REMARK  102  A    between atoms: _244  and  _245
REMARK  103  A    between atoms: _244  and  _247
REMARK  104  A    between atoms: _247  and  _248
REMARK  105  A    between atoms: _251  and  _253
REMARK  106  A    between atoms: _253  and  _254
REMARK  107  A    between atoms: _256  and  _258
REMARK  108  A    between atoms: _258  and  _259
REMARK  109  A    between atoms: _258  and  _261
REMARK  110  A    between atoms: _261  and  _262
REMARK  111  A    between atoms: _262  and  _263
REMARK  112  A    between atoms: _263  and  _264
REMARK  113  A    between atoms: _273  and  _275
REMARK  114  A    between atoms: _275  and  _276
REMARK  115  A    between atoms: _275  and  _278
REMARK  116  A    between atoms: _278  and  _279
REMARK  117  A    between atoms: _284  and  _286
REMARK  118  A    between atoms: _286  and  _287
REMARK  119  A    between atoms: _286  and  _289
REMARK  120  A    between atoms: _289  and  _290
REMARK  121  A    between atoms: _290  and  _291
REMARK  122  A    between atoms: _291  and  _292
REMARK  123  A    between atoms: _301  and  _303
REMARK  124  A    between atoms: _303  and  _304
REMARK  125  A    between atoms: _303  and  _306
REMARK  126  A    between atoms: _306  and  _307
REMARK  127  A    between atoms: _310  and  _312
REMARK  128  A    between atoms: _312  and  _313
REMARK  129  A    between atoms: _312  and  _315
REMARK  130  A    between atoms: _315  and  _316
REMARK  131  A    between atoms: _319  and  _321
REMARK  132  A    between atoms: _321  and  _322
REMARK  133  A    between atoms: _321  and  _324
REMARK  134  A    between atoms: _324  and  _325
REMARK  135  A    between atoms: _328  and  _330
REMARK  136  A    between atoms: _330  and  _331
REMARK  137  A    between atoms: _330  and  _333
REMARK  138  A    between atoms: _333  and  _334
REMARK  139  A    between atoms: _337  and  _339
REMARK  140  A    between atoms: _339  and  _340
REMARK  141  A    between atoms: _339  and  _342
REMARK  142  A    between atoms: _342  and  _343
REMARK  143  A    between atoms: _346  and  _348
REMARK  144  A    between atoms: _348  and  _349
REMARK  145  A    between atoms: _351  and  _353
REMARK  146  A    between atoms: _353  and  _354
REMARK  147  A    between atoms: _357  and  _359
REMARK  148  A    between atoms: _359  and  _360
REMARK  149  A    between atoms: _359  and  _362
REMARK  150  A    between atoms: _362  and  _363
REMARK  151  A    between atoms: _366  and  _368
REMARK  152  A    between atoms: _368  and  _369
REMARK  153  A    between atoms: _368  and  _371
REMARK  154  A    between atoms: _371  and  _372
REMARK  155  A    between atoms: _375  and  _377
REMARK  156  A    between atoms: _377  and  _378
REMARK  157  A    between atoms: _377  and  _380
REMARK  158  A    between atoms: _380  and  _381
REMARK  159  A    between atoms: _384  and  _386
REMARK  160  A    between atoms: _386  and  _387
REMARK  161  A    between atoms: _386  and  _389
REMARK  162  A    between atoms: _392  and  _394
REMARK  163  A    between atoms: _394  and  _395
REMARK  164  A    between atoms: _394  and  _397
REMARK  165  A    between atoms: _397  and  _398
REMARK  166  A    between atoms: _398  and  _399
REMARK  167  A    between atoms: _399  and  _400
REMARK  168  A    between atoms: _400  and  _401
REMARK  169  A    between atoms: _405  and  _407
REMARK  170  A    between atoms: _407  and  _408
REMARK  171  A    between atoms: _407  and  _410
REMARK  172  A    between atoms: _410  and  _411
REMARK  173  A    between atoms: _411  and  _412
REMARK  174  A    between atoms: _414  and  _416
REMARK  175  A    between atoms: _416  and  _417
REMARK  176  A    between atoms: _416  and  _419
REMARK  177  A    between atoms: _419  and  _420
REMARK  178  A    between atoms: _423  and  _425
REMARK  179  A    between atoms: _425  and  _426
REMARK  180  A    between atoms: _428  and  _430
REMARK  181  A    between atoms: _430  and  _431
REMARK  182  A    between atoms: _433  and  _435
REMARK  183  A    between atoms: _435  and  _436
REMARK  184  A    between atoms: _435  and  _438
REMARK  185  A    between atoms: _438  and  _439
REMARK  186  A    between atoms: _442  and  _444
REMARK  187  A    between atoms: _444  and  _445
REMARK  188  A    between atoms: _447  and  _449
REMARK  189  A    between atoms: _449  and  _450
REMARK  190  A    between atoms: _452  and  _454
REMARK  191  A    between atoms: _454  and  _455
REMARK  192  A    between atoms: _454  and  _457
REMARK  193  A    between atoms: _457  and  _458
REMARK  194  A    between atoms: _464  and  _466
REMARK  195  A    between atoms: _466  and  _467
REMARK  196  A    between atoms: _466  and  _469
REMARK  197  A    between atoms: _469  and  _470
REMARK  198  A    between atoms: _473  and  _475
REMARK  199  A    between atoms: _475  and  _476
REMARK  200  A    between atoms: _475  and  _478
REMARK  201  A    between atoms: _481  and  _483
REMARK  202  A    between atoms: _483  and  _484
REMARK  203  A    between atoms: _483  and  _486
REMARK  204  A    between atoms: _486  and  _487
REMARK  205  A    between atoms: _491  and  _492
REMARK  206  A    between atoms: _497  and  _499
REMARK  207  A    between atoms: _499  and  _500
REMARK  208  A    between atoms: _499  and  _502
REMARK  209  A    between atoms: _502  and  _503
REMARK  210  A    between atoms: _507  and  _508
REMARK  211  A    between atoms: _513  and  _515
REMARK  212  A    between atoms: _515  and  _516
REMARK  213  A    between atoms: _515  and  _518
REMARK  214  A    between atoms: _521  and  _523
REMARK  215  A    between atoms: _523  and  _524
REMARK  216  A    between atoms: _523  and  _526
REMARK  217  A    between atoms: _526  and  _527
REMARK  218  A    between atoms: _532  and  _534
REMARK  219  A    between atoms: _534  and  _535
REMARK  220  A    between atoms: _534  and  _537
REMARK  221  A    between atoms: _537  and  _538
REMARK  222  A    between atoms: _541  and  _543
REMARK  223  A    between atoms: _543  and  _544
REMARK  224  A    between atoms: _543  and  _546
REMARK  225  A    between atoms: _546  and  _547
REMARK  226  A    between atoms: _550  and  _552
REMARK  227  A    between atoms: _552  and  _553
REMARK  228  A    between atoms: _555  and  _557
REMARK  229  A    between atoms: _557  and  _558
REMARK  230  A    between atoms: _557  and  _560
REMARK  231  A    between atoms: _560  and  _561
REMARK  232  A    between atoms: _561  and  _562
REMARK  233  A    between atoms: _562  and  _563
REMARK  234  A    between atoms: _572  and  _574
REMARK  235  A    between atoms: _574  and  _575
REMARK  236  A    between atoms: _574  and  _577
REMARK  237  A    between atoms: _577  and  _578
REMARK                            x       y       z     vdW  Elec       q    Type
REMARK                         _______ _______ _______ _____ _____    ______ ____
ROOT
ATOM      1  O   HOH     1       4.225  -9.084 -15.339  0.00  0.00    +0.000 OA
ENDROOT
TORSDOF 0
REMARK  Name = ../refined-set-2016/2pwr/2pwr_pocket.pdb
REMARK  237 active torsions:
REMARK  status: ('A' for Active; 'I' for Inactive)
REMARK    1  A    between atoms: _1  and  _3
REMARK    2  A    between atoms: _3  and  _4
REMARK    3  A    between atoms: _3  and  _6
REMARK    4  A    between atoms: _6  and  _7
REMARK    5  A    between atoms: _7  and  _8
REMARK    6  A    between atoms: _8  and  _9
REMARK    7  A    between atoms: _18  and  _20
REMARK    8  A    between atoms: _20  and  _21
REMARK    9  A    between atoms: _20  and  _23
REMARK   10  A    between atoms: _23  and  _24
REMARK   11  A    between atoms: _27  and  _29
REMARK   12  A    between atoms: _29  and  _30
REMARK   13  A    between atoms: _29  and  _32
REMARK   14  A    between atoms: _32  and  _33
REMARK   15  A    between atoms: _36  and  _38
REMARK   16  A    between atoms: _38  and  _39
REMARK   17  A    between atoms: _38  and  _41
REMARK   18  A    between atoms: _41  and  _42
REMARK   19  A    between atoms: _45  and  _47
REMARK   20  A    between atoms: _47  and  _48
REMARK   21  A    between atoms: _47  and  _50
REMARK   22  A    between atoms: _50  and  _51
REMARK   23  A    between atoms: _54  and  _56
REMARK   24  A    between atoms: _56  and  _57
REMARK   25  A    between atoms: _59  and  _61
REMARK   26  A    between atoms: _61  and  _62
REMARK   27  A    between atoms: _65  and  _67
REMARK   28  A    between atoms: _67  and  _68
REMARK   29  A    between atoms: _67  and  _70
REMARK   30  A    between atoms: _70  and  _71
REMARK   31  A    between atoms: _74  and  _76
REMARK   32  A    between atoms: _76  and  _77
REMARK   33  A    between atoms: _76  and  _79
REMARK   34  A    between atoms: _79  and  _80
REMARK   35  A    between atoms: _83  and  _85
REMARK   36  A    between atoms: _85  and  _86
REMARK   37  A    between atoms: _85  and  _88
REMARK   38  A    between atoms: _88  and  _89
REMARK   39  A    between atoms: _92  and  _94
REMARK   40  A    between atoms: _94  and  _95
REMARK   41  A    between atoms: _94  and  _97
REMARK   42  A    between atoms: _100  and  _102
REMARK   43  A    between atoms: _102  and  _103
REMARK   44  A    between atoms: _102  and  _105
REMARK   45  A    between atoms: _105  and  _106
REMARK   46  A    between atoms: _106  and  _107
REMARK   47  A    between atoms: _107  and  _108
REMARK   48  A    between atoms: _108  and  _109
REMARK   49  A    between atoms: _113  and  _115
REMARK   50  A    between atoms: _115  and  _116
REMARK   51  A    between atoms: _115  and  _118
REMARK   52  A    between atoms: _118  and  _119
REMARK   53  A    between atoms: _119  and  _120
REMARK   54  A    between atoms: _122  and  _124
REMARK   55  A    between atoms: _124  and  _125
REMARK   56  A    between atoms: _124  and  _127
REMARK   57  A    between atoms: _127  and  _128
REMARK   58  A    between atoms: _131  and  _133
REMARK   59  A    between atoms: _133  and  _134
REMARK   60  A    between atoms: _136  and  _138
REMARK   61  A    between atoms: _138  and  _139
REMARK   62  A    between atoms: _141  and  _143
REMARK   63  A    between atoms: _143  and  _144
REMARK   64  A    between atoms: _143  and  _146
REMARK   65  A    between atoms: _146  and  _147
REMARK   66  A    between atoms: _150  and  _152
REMARK   67  A    between atoms: _152  and  _153
REMARK   68  A    between atoms: _155  and  _157
REMARK   69  A    between atoms: _157  and  _158
REMARK   70  A    between atoms: _160  and  _162
REMARK   71  A    between atoms: _162  and  _163
REMARK   72  A    between atoms: _162  and  _165
REMARK   73  A    between atoms: _165  and  _166
REMARK   74  A    between atoms: _172  and  _174
REMARK   75  A    between atoms: _174  and  _175
REMARK   76  A    between atoms: _174  and  _177
REMARK   77  A    between atoms: _177  and  _178
REMARK   78  A    between atoms: _181  and  _183
REMARK   79  A    between atoms: _183  and  _184
REMARK   80  A    between atoms: _183  and  _186
REMARK   81  A    between atoms: _189  and  _191
REMARK   82  A    between atoms: _191  and  _192
REMARK   83  A    between atoms: _191  and  _194
REMARK   84  A    between atoms: _194  and  _195
REMARK   85  A    between atoms: _198  and  _200
REMARK   86  A    between atoms: _200  and  _201
REMARK   87  A    between atoms: _200  and  _203
REMARK   88  A    between atoms: _203  and  _204
REMARK   89  A    between atoms: _208  and  _209
REMARK   90  A    between atoms: _214  and  _216
REMARK   91  A    between atoms: _216  and  _217
REMARK   92  A    between atoms: _216  and  _219
REMARK   93  A    between atoms: _222  and  _224
REMARK   94  A    between atoms: _224  and  _225
REMARK   95  A    between atoms: _224  and  _227
REMARK   96  A    between atoms: _227  and  _228
REMARK   97  A    between atoms: _233  and  _235
REMARK   98  A    between atoms: _235  and  _236
REMARK   99  A    between atoms: _235  and  _238
REMARK  100  A    between atoms: _238  and  _239
REMARK  101  A    between atoms: _242  and  _244
REMARK  102  A    between atoms: _244  and  _245
REMARK  103  A    between atoms: _244  and  _247
REMARK  104  A    between atoms: _247  and  _248
REMARK  105  A    between atoms: _251  and  _253
REMARK  106  A    between atoms: _253  and  _254
REMARK  107  A    between atoms: _256  and  _258
REMARK  108  A    between atoms: _258  and  _259
REMARK  109  A    between atoms: _258  and  _261
REMARK  110  A    between atoms: _261  and  _262
REMARK  111  A    between atoms: _262  and  _263
REMARK  112  A    between atoms: _263  and  _264
REMARK  113  A    between atoms: _273  and  _275
REMARK  114  A    between atoms: _275  and  _276
REMARK  115  A    between atoms: _275  and  _278
REMARK  116  A    between atoms: _278  and  _279
REMARK  117  A    between atoms: _284  and  _286
REMARK  118  A    between atoms: _286  and  _287
REMARK  119  A    between atoms: _286  and  _289
REMARK  120  A    between atoms: _289  and  _290
REMARK  121  A    between atoms: _290  and  _291
REMARK  122  A    between atoms: _291  and  _292
REMARK  123  A    between atoms: _301  and  _303
REMARK  124  A    between atoms: _303  and  _304
REMARK  125  A    between atoms: _303  and  _306
REMARK  126  A    between atoms: _306  and  _307
REMARK  127  A    between atoms: _310  and  _312
REMARK  128  A    between atoms: _312  and  _313
REMARK  129  A    between atoms: _312  and  _315
REMARK  130  A    between atoms: _315  and  _316
REMARK  131  A    between atoms: _319  and  _321
REMARK  132  A    between atoms: _321  and  _322
REMARK  133  A    between atoms: _321  and  _324
REMARK  134  A    between atoms: _324  and  _325
REMARK  135  A    between atoms: _328  and  _330
REMARK  136  A    between atoms: _330  and  _331
REMARK  137  A    between atoms: _330  and  _333
REMARK  138  A    between atoms: _333  and  _334
REMARK  139  A    between atoms: _337  and  _339
REMARK  140  A    between atoms: _339  and  _340
REMARK  141  A    between atoms: _339  and  _342
REMARK  142  A    between atoms: _342  and  _343
REMARK  143  A    between atoms: _346  and  _348
REMARK  144  A    between atoms: _348  and  _349
REMARK  145  A    between atoms: _351  and  _353
REMARK  146  A    between atoms: _353  and  _354
REMARK  147  A    between atoms: _357  and  _359
REMARK  148  A    between atoms: _359  and  _360
REMARK  149  A    between atoms: _359  and  _362
REMARK  150  A    between atoms: _362  and  _363
REMARK  151  A    between atoms: _366  and  _368
REMARK  152  A    between atoms: _368  and  _369
REMARK  153  A    between atoms: _368  and  _371
REMARK  154  A    between atoms: _371  and  _372
REMARK  155  A    between atoms: _375  and  _377
REMARK  156  A    between atoms: _377  and  _378
REMARK  157  A    between atoms: _377  and  _380
REMARK  158  A    between atoms: _380  and  _381
REMARK  159  A    between atoms: _384  and  _386
REMARK  160  A    between atoms: _386  and  _387
REMARK  161  A    between atoms: _386  and  _389
REMARK  162  A    between atoms: _392  and  _394
REMARK  163  A    between atoms: _394  and  _395
REMARK  164  A    between atoms: _394  and  _397
REMARK  165  A    between atoms: _397  and  _398
REMARK  166  A    between atoms: _398  and  _399
REMARK  167  A    between atoms: _399  and  _400
REMARK  168  A    between atoms: _400  and  _401
REMARK  169  A    between atoms: _405  and  _407
REMARK  170  A    between atoms: _407  and  _408
REMARK  171  A    between atoms: _407  and  _410
REMARK  172  A    between atoms: _410  and  _411
REMARK  173  A    between atoms: _411  and  _412
REMARK  174  A    between atoms: _414  and  _416
REMARK  175  A    between atoms: _416  and  _417
REMARK  176  A    between atoms: _416  and  _419
REMARK  177  A    between atoms: _419  and  _420
REMARK  178  A    between atoms: _423  and  _425
REMARK  179  A    between atoms: _425  and  _426
REMARK  180  A    between atoms: _428  and  _430
REMARK  181  A    between atoms: _430  and  _431
REMARK  182  A    between atoms: _433  and  _435
REMARK  183  A    between atoms: _435  and  _436
REMARK  184  A    between atoms: _435  and  _438
REMARK  185  A    between atoms: _438  and  _439
REMARK  186  A    between atoms: _442  and  _444
REMARK  187  A    between atoms: _444  and  _445
REMARK  188  A    between atoms: _447  and  _449
REMARK  189  A    between atoms: _449  and  _450
REMARK  190  A    between atoms: _452  and  _454
REMARK  191  A    between atoms: _454  and  _455
REMARK  192  A    between atoms: _454  and  _457
REMARK  193  A    between atoms: _457  and  _458
REMARK  194  A    between atoms: _464  and  _466
REMARK  195  A    between atoms: _466  and  _467
REMARK  196  A    between atoms: _466  and  _469
REMARK  197  A    between atoms: _469  and  _470
REMARK  198  A    between atoms: _473  and  _475
REMARK  199  A    between atoms: _475  and  _476
REMARK  200  A    between atoms: _475  and  _478
REMARK  201  A    between atoms: _481  and  _483
REMARK  202  A    between atoms: _483  and  _484
REMARK  203  A    between atoms: _483  and  _486
REMARK  204  A    between atoms: _486  and  _487
REMARK  205  A    between atoms: _491  and  _492
REMARK  206  A    between atoms: _497  and  _499
REMARK  207  A    between atoms: _499  and  _500
REMARK  208  A    between atoms: _499  and  _502
REMARK  209  A    between atoms: _502  and  _503
REMARK  210  A    between atoms: _507  and  _508
REMARK  211  A    between atoms: _513  and  _515
REMARK  212  A    between atoms: _515  and  _516
REMARK  213  A    between atoms: _515  and  _518
REMARK  214  A    between atoms: _521  and  _523
REMARK  215  A    between atoms: _523  and  _524
REMARK  216  A    between atoms: _523  and  _526
REMARK  217  A    between atoms: _526  and  _527
REMARK  218  A    between atoms: _532  and  _534
REMARK  219  A    between atoms: _534  and  _535
REMARK  220  A    between atoms: _534  and  _537
REMARK  221  A    between atoms: _537  and  _538
REMARK  222  A    between atoms: _541  and  _543
REMARK  223  A    between atoms: _543  and  _544
REMARK  224  A    between atoms: _543  and  _546
REMARK  225  A    between atoms: _546  and  _547
REMARK  226  A    between atoms: _550  and  _552
REMARK  227  A    between atoms: _552  and  _553
REMARK  228  A    between atoms: _555  and  _557
REMARK  229  A    between atoms: _557  and  _558
REMARK  230  A    between atoms: _557  and  _560
REMARK  231  A    between atoms: _560  and  _561
REMARK  232  A    between atoms: _561  and  _562
REMARK  233  A    between atoms: _562  and  _563
REMARK  234  A    between atoms: _572  and  _574
REMARK  235  A    between atoms: _574  and  _575
REMARK  236  A    between atoms: _574  and  _577
REMARK  237  A    between atoms: _577  and  _578
REMARK                            x       y       z     vdW  Elec       q    Type
REMARK                         _______ _______ _______ _____ _____    ______ ____
ROOT
ATOM      1  O   HOH     1       3.786  -9.006 -11.129  0.00  0.00    +0.000 OA
ENDROOT
TORSDOF 0
REMARK  Name = ../refined-set-2016/2pwr/2pwr_pocket.pdb
REMARK  237 active torsions:
REMARK  status: ('A' for Active; 'I' for Inactive)
REMARK    1  A    between atoms: _1  and  _3
REMARK    2  A    between atoms: _3  and  _4
REMARK    3  A    between atoms: _3  and  _6
REMARK    4  A    between atoms: _6  and  _7
REMARK    5  A    between atoms: _7  and  _8
REMARK    6  A    between atoms: _8  and  _9
REMARK    7  A    between atoms: _18  and  _20
REMARK    8  A    between atoms: _20  and  _21
REMARK    9  A    between atoms: _20  and  _23
REMARK   10  A    between atoms: _23  and  _24
REMARK   11  A    between atoms: _27  and  _29
REMARK   12  A    between atoms: _29  and  _30
REMARK   13  A    between atoms: _29  and  _32
REMARK   14  A    between atoms: _32  and  _33
REMARK   15  A    between atoms: _36  and  _38
REMARK   16  A    between atoms: _38  and  _39
REMARK   17  A    between atoms: _38  and  _41
REMARK   18  A    between atoms: _41  and  _42
REMARK   19  A    between atoms: _45  and  _47
REMARK   20  A    between atoms: _47  and  _48
REMARK   21  A    between atoms: _47  and  _50
REMARK   22  A    between atoms: _50  and  _51
REMARK   23  A    between atoms: _54  and  _56
REMARK   24  A    between atoms: _56  and  _57
REMARK   25  A    between atoms: _59  and  _61
REMARK   26  A    between atoms: _61  and  _62
REMARK   27  A    between atoms: _65  and  _67
REMARK   28  A    between atoms: _67  and  _68
REMARK   29  A    between atoms: _67  and  _70
REMARK   30  A    between atoms: _70  and  _71
REMARK   31  A    between atoms: _74  and  _76
REMARK   32  A    between atoms: _76  and  _77
REMARK   33  A    between atoms: _76  and  _79
REMARK   34  A    between atoms: _79  and  _80
REMARK   35  A    between atoms: _83  and  _85
REMARK   36  A    between atoms: _85  and  _86
REMARK   37  A    between atoms: _85  and  _88
REMARK   38  A    between atoms: _88  and  _89
REMARK   39  A    between atoms: _92  and  _94
REMARK   40  A    between atoms: _94  and  _95
REMARK   41  A    between atoms: _94  and  _97
REMARK   42  A    between atoms: _100  and  _102
REMARK   43  A    between atoms: _102  and  _103
REMARK   44  A    between atoms: _102  and  _105
REMARK   45  A    between atoms: _105  and  _106
REMARK   46  A    between atoms: _106  and  _107
REMARK   47  A    between atoms: _107  and  _108
REMARK   48  A    between atoms: _108  and  _109
REMARK   49  A    between atoms: _113  and  _115
REMARK   50  A    between atoms: _115  and  _116
REMARK   51  A    between atoms: _115  and  _118
REMARK   52  A    between atoms: _118  and  _119
REMARK   53  A    between atoms: _119  and  _120
REMARK   54  A    between atoms: _122  and  _124
REMARK   55  A    between atoms: _124  and  _125
REMARK   56  A    between atoms: _124  and  _127
REMARK   57  A    between atoms: _127  and  _128
REMARK   58  A    between atoms: _131  and  _133
REMARK   59  A    between atoms: _133  and  _134
REMARK   60  A    between atoms: _136  and  _138
REMARK   61  A    between atoms: _138  and  _139
REMARK   62  A    between atoms: _141  and  _143
REMARK   63  A    between atoms: _143  and  _144
REMARK   64  A    between atoms: _143  and  _146
REMARK   65  A    between atoms: _146  and  _147
REMARK   66  A    between atoms: _150  and  _152
REMARK   67  A    between atoms: _152  and  _153
REMARK   68  A    between atoms: _155  and  _157
REMARK   69  A    between atoms: _157  and  _158
REMARK   70  A    between atoms: _160  and  _162
REMARK   71  A    between atoms: _162  and  _163
REMARK   72  A    between atoms: _162  and  _165
REMARK   73  A    between atoms: _165  and  _166
REMARK   74  A    between atoms: _172  and  _174
REMARK   75  A    between atoms: _174  and  _175
REMARK   76  A    between atoms: _174  and  _177
REMARK   77  A    between atoms: _177  and  _178
REMARK   78  A    between atoms: _181  and  _183
REMARK   79  A    between atoms: _183  and  _184
REMARK   80  A    between atoms: _183  and  _186
REMARK   81  A    between atoms: _189  and  _191
REMARK   82  A    between atoms: _191  and  _192
REMARK   83  A    between atoms: _191  and  _194
REMARK   84  A    between atoms: _194  and  _195
REMARK   85  A    between atoms: _198  and  _200
REMARK   86  A    between atoms: _200  and  _201
REMARK   87  A    between atoms: _200  and  _203
REMARK   88  A    between atoms: _203  and  _204
REMARK   89  A    between atoms: _208  and  _209
REMARK   90  A    between atoms: _214  and  _216
REMARK   91  A    between atoms: _216  and  _217
REMARK   92  A    between atoms: _216  and  _219
REMARK   93  A    between atoms: _222  and  _224
REMARK   94  A    between atoms: _224  and  _225
REMARK   95  A    between atoms: _224  and  _227
REMARK   96  A    between atoms: _227  and  _228
REMARK   97  A    between atoms: _233  and  _235
REMARK   98  A    between atoms: _235  and  _236
REMARK   99  A    between atoms: _235  and  _238
REMARK  100  A    between atoms: _238  and  _239
REMARK  101  A    between atoms: _242  and  _244
REMARK  102  A    between atoms: _244  and  _245
REMARK  103  A    between atoms: _244  and  _247
REMARK  104  A    between atoms: _247  and  _248
REMARK  105  A    between atoms: _251  and  _253
REMARK  106  A    between atoms: _253  and  _254
REMARK  107  A    between atoms: _256  and  _258
REMARK  108  A    between atoms: _258  and  _259
REMARK  109  A    between atoms: _258  and  _261
REMARK  110  A    between atoms: _261  and  _262
REMARK  111  A    between atoms: _262  and  _263
REMARK  112  A    between atoms: _263  and  _264
REMARK  113  A    between atoms: _273  and  _275
REMARK  114  A    between atoms: _275  and  _276
REMARK  115  A    between atoms: _275  and  _278
REMARK  116  A    between atoms: _278  and  _279
REMARK  117  A    between atoms: _284  and  _286
REMARK  118  A    between atoms: _286  and  _287
REMARK  119  A    between atoms: _286  and  _289
REMARK  120  A    between atoms: _289  and  _290
REMARK  121  A    between atoms: _290  and  _291
REMARK  122  A    between atoms: _291  and  _292
REMARK  123  A    between atoms: _301  and  _303
REMARK  124  A    between atoms: _303  and  _304
REMARK  125  A    between atoms: _303  and  _306
REMARK  126  A    between atoms: _306  and  _307
REMARK  127  A    between atoms: _310  and  _312
REMARK  128  A    between atoms: _312  and  _313
REMARK  129  A    between atoms: _312  and  _315
REMARK  130  A    between atoms: _315  and  _316
REMARK  131  A    between atoms: _319  and  _321
REMARK  132  A    between atoms: _321  and  _322
REMARK  133  A    between atoms: _321  and  _324
REMARK  134  A    between atoms: _324  and  _325
REMARK  135  A    between atoms: _328  and  _330
REMARK  136  A    between atoms: _330  and  _331
REMARK  137  A    between atoms: _330  and  _333
REMARK  138  A    between atoms: _333  and  _334
REMARK  139  A    between atoms: _337  and  _339
REMARK  140  A    between atoms: _339  and  _340
REMARK  141  A    between atoms: _339  and  _342
REMARK  142  A    between atoms: _342  and  _343
REMARK  143  A    between atoms: _346  and  _348
REMARK  144  A    between atoms: _348  and  _349
REMARK  145  A    between atoms: _351  and  _353
REMARK  146  A    between atoms: _353  and  _354
REMARK  147  A    between atoms: _357  and  _359
REMARK  148  A    between atoms: _359  and  _360
REMARK  149  A    between atoms: _359  and  _362
REMARK  150  A    between atoms: _362  and  _363
REMARK  151  A    between atoms: _366  and  _368
REMARK  152  A    between atoms: _368  and  _369
REMARK  153  A    between atoms: _368  and  _371
REMARK  154  A    between atoms: _371  and  _372
REMARK  155  A    between atoms: _375  and  _377
REMARK  156  A    between atoms: _377  and  _378
REMARK  157  A    between atoms: _377  and  _380
REMARK  158  A    between atoms: _380  and  _381
REMARK  159  A    between atoms: _384  and  _386
REMARK  160  A    between atoms: _386  and  _387
REMARK  161  A    between atoms: _386  and  _389
REMARK  162  A    between atoms: _392  and  _394
REMARK  163  A    between atoms: _394  and  _395
REMARK  164  A    between atoms: _394  and  _397
REMARK  165  A    between atoms: _397  and  _398
REMARK  166  A    between atoms: _398  and  _399
REMARK  167  A    between atoms: _399  and  _400
REMARK  168  A    between atoms: _400  and  _401
REMARK  169  A    between atoms: _405  and  _407
REMARK  170  A    between atoms: _407  and  _408
REMARK  171  A    between atoms: _407  and  _410
REMARK  172  A    between atoms: _410  and  _411
REMARK  173  A    between atoms: _411  and  _412
REMARK  174  A    between atoms: _414  and  _416
REMARK  175  A    between atoms: _416  and  _417
REMARK  176  A    between atoms: _416  and  _419
REMARK  177  A    between atoms: _419  and  _420
REMARK  178  A    between atoms: _423  and  _425
REMARK  179  A    between atoms: _425  and  _426
REMARK  180  A    between atoms: _428  and  _430
REMARK  181  A    between atoms: _430  and  _431
REMARK  182  A    between atoms: _433  and  _435
REMARK  183  A    between atoms: _435  and  _436
REMARK  184  A    between atoms: _435  and  _438
REMARK  185  A    between atoms: _438  and  _439
REMARK  186  A    between atoms: _442  and  _444
REMARK  187  A    between atoms: _444  and  _445
REMARK  188  A    between atoms: _447  and  _449
REMARK  189  A    between atoms: _449  and  _450
REMARK  190  A    between atoms: _452  and  _454
REMARK  191  A    between atoms: _454  and  _455
REMARK  192  A    between atoms: _454  and  _457
REMARK  193  A    between atoms: _457  and  _458
REMARK  194  A    between atoms: _464  and  _466
REMARK  195  A    between atoms: _466  and  _467
REMARK  196  A    between atoms: _466  and  _469
REMARK  197  A    between atoms: _469  and  _470
REMARK  198  A    between atoms: _473  and  _475
REMARK  199  A    between atoms: _475  and  _476
REMARK  200  A    between atoms: _475  and  _478
REMARK  201  A    between atoms: _481  and  _483
REMARK  202  A    between atoms: _483  and  _484
REMARK  203  A    between atoms: _483  and  _486
REMARK  204  A    between atoms: _486  and  _487
REMARK  205  A    between atoms: _491  and  _492
REMARK  206  A    between atoms: _497  and  _499
REMARK  207  A    between atoms: _499  and  _500
REMARK  208  A    between atoms: _499  and  _502
REMARK  209  A    between atoms: _502  and  _503
REMARK  210  A    between atoms: _507  and  _508
REMARK  211  A    between atoms: _513  and  _515
REMARK  212  A    between atoms: _515  and  _516
REMARK  213  A    between atoms: _515  and  _518
REMARK  214  A    between atoms: _521  and  _523
REMARK  215  A    between atoms: _523  and  _524
REMARK  216  A    between atoms: _523  and  _526
REMARK  217  A    between atoms: _526  and  _527
REMARK  218  A    between atoms: _532  and  _534
REMARK  219  A    between atoms: _534  and  _535
REMARK  220  A    between atoms: _534  and  _537
REMARK  221  A    between atoms: _537  and  _538
REMARK  222  A    between atoms: _541  and  _543
REMARK  223  A    between atoms: _543  and  _544
REMARK  224  A    between atoms: _543  and  _546
REMARK  225  A    between atoms: _546  and  _547
REMARK  226  A    between atoms: _550  and  _552
REMARK  227  A    between atoms: _552  and  _553
REMARK  228  A    between atoms: _555  and  _557
REMARK  229  A    between atoms: _557  and  _558
REMARK  230  A    between atoms: _557  and  _560
REMARK  231  A    between atoms: _560  and  _561
REMARK  232  A    between atoms: _561  and  _562
REMARK  233  A    between atoms: _562  and  _563
REMARK  234  A    between atoms: _572  and  _574
REMARK  235  A    between atoms: _574  and  _575
REMARK  236  A    between atoms: _574  and  _577
REMARK  237  A    between atoms: _577  and  _578
REMARK                            x       y       z     vdW  Elec       q    Type
REMARK                         _______ _______ _______ _____ _____    ______ ____
ROOT
ATOM      1  O   HOH     1      22.280 -20.534 -11.521  0.00  0.00    +0.000 OA
ENDROOT
TORSDOF 0
REMARK  Name = ../refined-set-2016/2pwr/2pwr_pocket.pdb
REMARK  237 active torsions:
REMARK  status: ('A' for Active; 'I' for Inactive)
REMARK    1  A    between atoms: _1  and  _3
REMARK    2  A    between atoms: _3  and  _4
REMARK    3  A    between atoms: _3  and  _6
REMARK    4  A    between atoms: _6  and  _7
REMARK    5  A    between atoms: _7  and  _8
REMARK    6  A    between atoms: _8  and  _9
REMARK    7  A    between atoms: _18  and  _20
REMARK    8  A    between atoms: _20  and  _21
REMARK    9  A    between atoms: _20  and  _23
REMARK   10  A    between atoms: _23  and  _24
REMARK   11  A    between atoms: _27  and  _29
REMARK   12  A    between atoms: _29  and  _30
REMARK   13  A    between atoms: _29  and  _32
REMARK   14  A    between atoms: _32  and  _33
REMARK   15  A    between atoms: _36  and  _38
REMARK   16  A    between atoms: _38  and  _39
REMARK   17  A    between atoms: _38  and  _41
REMARK   18  A    between atoms: _41  and  _42
REMARK   19  A    between atoms: _45  and  _47
REMARK   20  A    between atoms: _47  and  _48
REMARK   21  A    between atoms: _47  and  _50
REMARK   22  A    between atoms: _50  and  _51
REMARK   23  A    between atoms: _54  and  _56
REMARK   24  A    between atoms: _56  and  _57
REMARK   25  A    between atoms: _59  and  _61
REMARK   26  A    between atoms: _61  and  _62
REMARK   27  A    between atoms: _65  and  _67
REMARK   28  A    between atoms: _67  and  _68
REMARK   29  A    between atoms: _67  and  _70
REMARK   30  A    between atoms: _70  and  _71
REMARK   31  A    between atoms: _74  and  _76
REMARK   32  A    between atoms: _76  and  _77
REMARK   33  A    between atoms: _76  and  _79
REMARK   34  A    between atoms: _79  and  _80
REMARK   35  A    between atoms: _83  and  _85
REMARK   36  A    between atoms: _85  and  _86
REMARK   37  A    between atoms: _85  and  _88
REMARK   38  A    between atoms: _88  and  _89
REMARK   39  A    between atoms: _92  and  _94
REMARK   40  A    between atoms: _94  and  _95
REMARK   41  A    between atoms: _94  and  _97
REMARK   42  A    between atoms: _100  and  _102
REMARK   43  A    between atoms: _102  and  _103
REMARK   44  A    between atoms: _102  and  _105
REMARK   45  A    between atoms: _105  and  _106
REMARK   46  A    between atoms: _106  and  _107
REMARK   47  A    between atoms: _107  and  _108
REMARK   48  A    between atoms: _108  and  _109
REMARK   49  A    between atoms: _113  and  _115
REMARK   50  A    between atoms: _115  and  _116
REMARK   51  A    between atoms: _115  and  _118
REMARK   52  A    between atoms: _118  and  _119
REMARK   53  A    between atoms: _119  and  _120
REMARK   54  A    between atoms: _122  and  _124
REMARK   55  A    between atoms: _124  and  _125
REMARK   56  A    between atoms: _124  and  _127
REMARK   57  A    between atoms: _127  and  _128
REMARK   58  A    between atoms: _131  and  _133
REMARK   59  A    between atoms: _133  and  _134
REMARK   60  A    between atoms: _136  and  _138
REMARK   61  A    between atoms: _138  and  _139
REMARK   62  A    between atoms: _141  and  _143
REMARK   63  A    between atoms: _143  and  _144
REMARK   64  A    between atoms: _143  and  _146
REMARK   65  A    between atoms: _146  and  _147
REMARK   66  A    between atoms: _150  and  _152
REMARK   67  A    between atoms: _152  and  _153
REMARK   68  A    between atoms: _155  and  _157
REMARK   69  A    between atoms: _157  and  _158
REMARK   70  A    between atoms: _160  and  _162
REMARK   71  A    between atoms: _162  and  _163
REMARK   72  A    between atoms: _162  and  _165
REMARK   73  A    between atoms: _165  and  _166
REMARK   74  A    between atoms: _172  and  _174
REMARK   75  A    between atoms: _174  and  _175
REMARK   76  A    between atoms: _174  and  _177
REMARK   77  A    between atoms: _177  and  _178
REMARK   78  A    between atoms: _181  and  _183
REMARK   79  A    between atoms: _183  and  _184
REMARK   80  A    between atoms: _183  and  _186
REMARK   81  A    between atoms: _189  and  _191
REMARK   82  A    between atoms: _191  and  _192
REMARK   83  A    between atoms: _191  and  _194
REMARK   84  A    between atoms: _194  and  _195
REMARK   85  A    between atoms: _198  and  _200
REMARK   86  A    between atoms: _200  and  _201
REMARK   87  A    between atoms: _200  and  _203
REMARK   88  A    between atoms: _203  and  _204
REMARK   89  A    between atoms: _208  and  _209
REMARK   90  A    between atoms: _214  and  _216
REMARK   91  A    between atoms: _216  and  _217
REMARK   92  A    between atoms: _216  and  _219
REMARK   93  A    between atoms: _222  and  _224
REMARK   94  A    between atoms: _224  and  _225
REMARK   95  A    between atoms: _224  and  _227
REMARK   96  A    between atoms: _227  and  _228
REMARK   97  A    between atoms: _233  and  _235
REMARK   98  A    between atoms: _235  and  _236
REMARK   99  A    between atoms: _235  and  _238
REMARK  100  A    between atoms: _238  and  _239
REMARK  101  A    between atoms: _242  and  _244
REMARK  102  A    between atoms: _244  and  _245
REMARK  103  A    between atoms: _244  and  _247
REMARK  104  A    between atoms: _247  and  _248
REMARK  105  A    between atoms: _251  and  _253
REMARK  106  A    between atoms: _253  and  _254
REMARK  107  A    between atoms: _256  and  _258
REMARK  108  A    between atoms: _258  and  _259
REMARK  109  A    between atoms: _258  and  _261
REMARK  110  A    between atoms: _261  and  _262
REMARK  111  A    between atoms: _262  and  _263
REMARK  112  A    between atoms: _263  and  _264
REMARK  113  A    between atoms: _273  and  _275
REMARK  114  A    between atoms: _275  and  _276
REMARK  115  A    between atoms: _275  and  _278
REMARK  116  A    between atoms: _278  and  _279
REMARK  117  A    between atoms: _284  and  _286
REMARK  118  A    between atoms: _286  and  _287
REMARK  119  A    between atoms: _286  and  _289
REMARK  120  A    between atoms: _289  and  _290
REMARK  121  A    between atoms: _290  and  _291
REMARK  122  A    between atoms: _291  and  _292
REMARK  123  A    between atoms: _301  and  _303
REMARK  124  A    between atoms: _303  and  _304
REMARK  125  A    between atoms: _303  and  _306
REMARK  126  A    between atoms: _306  and  _307
REMARK  127  A    between atoms: _310  and  _312
REMARK  128  A    between atoms: _312  and  _313
REMARK  129  A    between atoms: _312  and  _315
REMARK  130  A    between atoms: _315  and  _316
REMARK  131  A    between atoms: _319  and  _321
REMARK  132  A    between atoms: _321  and  _322
REMARK  133  A    between atoms: _321  and  _324
REMARK  134  A    between atoms: _324  and  _325
REMARK  135  A    between atoms: _328  and  _330
REMARK  136  A    between atoms: _330  and  _331
REMARK  137  A    between atoms: _330  and  _333
REMARK  138  A    between atoms: _333  and  _334
REMARK  139  A    between atoms: _337  and  _339
REMARK  140  A    between atoms: _339  and  _340
REMARK  141  A    between atoms: _339  and  _342
REMARK  142  A    between atoms: _342  and  _343
REMARK  143  A    between atoms: _346  and  _348
REMARK  144  A    between atoms: _348  and  _349
REMARK  145  A    between atoms: _351  and  _353
REMARK  146  A    between atoms: _353  and  _354
REMARK  147  A    between atoms: _357  and  _359
REMARK  148  A    between atoms: _359  and  _360
REMARK  149  A    between atoms: _359  and  _362
REMARK  150  A    between atoms: _362  and  _363
REMARK  151  A    between atoms: _366  and  _368
REMARK  152  A    between atoms: _368  and  _369
REMARK  153  A    between atoms: _368  and  _371
REMARK  154  A    between atoms: _371  and  _372
REMARK  155  A    between atoms: _375  and  _377
REMARK  156  A    between atoms: _377  and  _378
REMARK  157  A    between atoms: _377  and  _380
REMARK  158  A    between atoms: _380  and  _381
REMARK  159  A    between atoms: _384  and  _386
REMARK  160  A    between atoms: _386  and  _387
REMARK  161  A    between atoms: _386  and  _389
REMARK  162  A    between atoms: _392  and  _394
REMARK  163  A    between atoms: _394  and  _395
REMARK  164  A    between atoms: _394  and  _397
REMARK  165  A    between atoms: _397  and  _398
REMARK  166  A    between atoms: _398  and  _399
REMARK  167  A    between atoms: _399  and  _400
REMARK  168  A    between atoms: _400  and  _401
REMARK  169  A    between atoms: _405  and  _407
REMARK  170  A    between atoms: _407  and  _408
REMARK  171  A    between atoms: _407  and  _410
REMARK  172  A    between atoms: _410  and  _411
REMARK  173  A    between atoms: _411  and  _412
REMARK  174  A    between atoms: _414  and  _416
REMARK  175  A    between atoms: _416  and  _417
REMARK  176  A    between atoms: _416  and  _419
REMARK  177  A    between atoms: _419  and  _420
REMARK  178  A    between atoms: _423  and  _425
REMARK  179  A    between atoms: _425  and  _426
REMARK  180  A    between atoms: _428  and  _430
REMARK  181  A    between atoms: _430  and  _431
REMARK  182  A    between atoms: _433  and  _435
REMARK  183  A    between atoms: _435  and  _436
REMARK  184  A    between atoms: _435  and  _438
REMARK  185  A    between atoms: _438  and  _439
REMARK  186  A    between atoms: _442  and  _444
REMARK  187  A    between atoms: _444  and  _445
REMARK  188  A    between atoms: _447  and  _449
REMARK  189  A    between atoms: _449  and  _450
REMARK  190  A    between atoms: _452  and  _454
REMARK  191  A    between atoms: _454  and  _455
REMARK  192  A    between atoms: _454  and  _457
REMARK  193  A    between atoms: _457  and  _458
REMARK  194  A    between atoms: _464  and  _466
REMARK  195  A    between atoms: _466  and  _467
REMARK  196  A    between atoms: _466  and  _469
REMARK  197  A    between atoms: _469  and  _470
REMARK  198  A    between atoms: _473  and  _475
REMARK  199  A    between atoms: _475  and  _476
REMARK  200  A    between atoms: _475  and  _478
REMARK  201  A    between atoms: _481  and  _483
REMARK  202  A    between atoms: _483  and  _484
REMARK  203  A    between atoms: _483  and  _486
REMARK  204  A    between atoms: _486  and  _487
REMARK  205  A    between atoms: _491  and  _492
REMARK  206  A    between atoms: _497  and  _499
REMARK  207  A    between atoms: _499  and  _500
REMARK  208  A    between atoms: _499  and  _502
REMARK  209  A    between atoms: _502  and  _503
REMARK  210  A    between atoms: _507  and  _508
REMARK  211  A    between atoms: _513  and  _515
REMARK  212  A    between atoms: _515  and  _516
REMARK  213  A    between atoms: _515  and  _518
REMARK  214  A    between atoms: _521  and  _523
REMARK  215  A    between atoms: _523  and  _524
REMARK  216  A    between atoms: _523  and  _526
REMARK  217  A    between atoms: _526  and  _527
REMARK  218  A    between atoms: _532  and  _534
REMARK  219  A    between atoms: _534  and  _535
REMARK  220  A    between atoms: _534  and  _537
REMARK  221  A    between atoms: _537  and  _538
REMARK  222  A    between atoms: _541  and  _543
REMARK  223  A    between atoms: _543  and  _544
REMARK  224  A    between atoms: _543  and  _546
REMARK  225  A    between atoms: _546  and  _547
REMARK  226  A    between atoms: _550  and  _552
REMARK  227  A    between atoms: _552  and  _553
REMARK  228  A    between atoms: _555  and  _557
REMARK  229  A    between atoms: _557  and  _558
REMARK  230  A    between atoms: _557  and  _560
REMARK  231  A    between atoms: _560  and  _561
REMARK  232  A    between atoms: _561  and  _562
REMARK  233  A    between atoms: _562  and  _563
REMARK  234  A    between atoms: _572  and  _574
REMARK  235  A    between atoms: _574  and  _575
REMARK  236  A    between atoms: _574  and  _577
REMARK  237  A    between atoms: _577  and  _578
REMARK                            x       y       z     vdW  Elec       q    Type
REMARK                         _______ _______ _______ _____ _____    ______ ____
ROOT
ATOM      1  O   HOH     1       1.547  -9.502 -11.348  0.00  0.00    +0.000 OA
ENDROOT
TORSDOF 0
REMARK  Name = ../refined-set-2016/2pwr/2pwr_pocket.pdb
REMARK  237 active torsions:
REMARK  status: ('A' for Active; 'I' for Inactive)
REMARK    1  A    between atoms: _1  and  _3
REMARK    2  A    between atoms: _3  and  _4
REMARK    3  A    between atoms: _3  and  _6
REMARK    4  A    between atoms: _6  and  _7
REMARK    5  A    between atoms: _7  and  _8
REMARK    6  A    between atoms: _8  and  _9
REMARK    7  A    between atoms: _18  and  _20
REMARK    8  A    between atoms: _20  and  _21
REMARK    9  A    between atoms: _20  and  _23
REMARK   10  A    between atoms: _23  and  _24
REMARK   11  A    between atoms: _27  and  _29
REMARK   12  A    between atoms: _29  and  _30
REMARK   13  A    between atoms: _29  and  _32
REMARK   14  A    between atoms: _32  and  _33
REMARK   15  A    between atoms: _36  and  _38
REMARK   16  A    between atoms: _38  and  _39
REMARK   17  A    between atoms: _38  and  _41
REMARK   18  A    between atoms: _41  and  _42
REMARK   19  A    between atoms: _45  and  _47
REMARK   20  A    between atoms: _47  and  _48
REMARK   21  A    between atoms: _47  and  _50
REMARK   22  A    between atoms: _50  and  _51
REMARK   23  A    between atoms: _54  and  _56
REMARK   24  A    between atoms: _56  and  _57
REMARK   25  A    between atoms: _59  and  _61
REMARK   26  A    between atoms: _61  and  _62
REMARK   27  A    between atoms: _65  and  _67
REMARK   28  A    between atoms: _67  and  _68
REMARK   29  A    between atoms: _67  and  _70
REMARK   30  A    between atoms: _70  and  _71
REMARK   31  A    between atoms: _74  and  _76
REMARK   32  A    between atoms: _76  and  _77
REMARK   33  A    between atoms: _76  and  _79
REMARK   34  A    between atoms: _79  and  _80
REMARK   35  A    between atoms: _83  and  _85
REMARK   36  A    between atoms: _85  and  _86
REMARK   37  A    between atoms: _85  and  _88
REMARK   38  A    between atoms: _88  and  _89
REMARK   39  A    between atoms: _92  and  _94
REMARK   40  A    between atoms: _94  and  _95
REMARK   41  A    between atoms: _94  and  _97
REMARK   42  A    between atoms: _100  and  _102
REMARK   43  A    between atoms: _102  and  _103
REMARK   44  A    between atoms: _102  and  _105
REMARK   45  A    between atoms: _105  and  _106
REMARK   46  A    between atoms: _106  and  _107
REMARK   47  A    between atoms: _107  and  _108
REMARK   48  A    between atoms: _108  and  _109
REMARK   49  A    between atoms: _113  and  _115
REMARK   50  A    between atoms: _115  and  _116
REMARK   51  A    between atoms: _115  and  _118
REMARK   52  A    between atoms: _118  and  _119
REMARK   53  A    between atoms: _119  and  _120
REMARK   54  A    between atoms: _122  and  _124
REMARK   55  A    between atoms: _124  and  _125
REMARK   56  A    between atoms: _124  and  _127
REMARK   57  A    between atoms: _127  and  _128
REMARK   58  A    between atoms: _131  and  _133
REMARK   59  A    between atoms: _133  and  _134
REMARK   60  A    between atoms: _136  and  _138
REMARK   61  A    between atoms: _138  and  _139
REMARK   62  A    between atoms: _141  and  _143
REMARK   63  A    between atoms: _143  and  _144
REMARK   64  A    between atoms: _143  and  _146
REMARK   65  A    between atoms: _146  and  _147
REMARK   66  A    between atoms: _150  and  _152
REMARK   67  A    between atoms: _152  and  _153
REMARK   68  A    between atoms: _155  and  _157
REMARK   69  A    between atoms: _157  and  _158
REMARK   70  A    between atoms: _160  and  _162
REMARK   71  A    between atoms: _162  and  _163
REMARK   72  A    between atoms: _162  and  _165
REMARK   73  A    between atoms: _165  and  _166
REMARK   74  A    between atoms: _172  and  _174
REMARK   75  A    between atoms: _174  and  _175
REMARK   76  A    between atoms: _174  and  _177
REMARK   77  A    between atoms: _177  and  _178
REMARK   78  A    between atoms: _181  and  _183
REMARK   79  A    between atoms: _183  and  _184
REMARK   80  A    between atoms: _183  and  _186
REMARK   81  A    between atoms: _189  and  _191
REMARK   82  A    between atoms: _191  and  _192
REMARK   83  A    between atoms: _191  and  _194
REMARK   84  A    between atoms: _194  and  _195
REMARK   85  A    between atoms: _198  and  _200
REMARK   86  A    between atoms: _200  and  _201
REMARK   87  A    between atoms: _200  and  _203
REMARK   88  A    between atoms: _203  and  _204
REMARK   89  A    between atoms: _208  and  _209
REMARK   90  A    between atoms: _214  and  _216
REMARK   91  A    between atoms: _216  and  _217
REMARK   92  A    between atoms: _216  and  _219
REMARK   93  A    between atoms: _222  and  _224
REMARK   94  A    between atoms: _224  and  _225
REMARK   95  A    between atoms: _224  and  _227
REMARK   96  A    between atoms: _227  and  _228
REMARK   97  A    between atoms: _233  and  _235
REMARK   98  A    between atoms: _235  and  _236
REMARK   99  A    between atoms: _235  and  _238
REMARK  100  A    between atoms: _238  and  _239
REMARK  101  A    between atoms: _242  and  _244
REMARK  102  A    between atoms: _244  and  _245
REMARK  103  A    between atoms: _244  and  _247
REMARK  104  A    between atoms: _247  and  _248
REMARK  105  A    between atoms: _251  and  _253
REMARK  106  A    between atoms: _253  and  _254
REMARK  107  A    between atoms: _256  and  _258
REMARK  108  A    between atoms: _258  and  _259
REMARK  109  A    between atoms: _258  and  _261
REMARK  110  A    between atoms: _261  and  _262
REMARK  111  A    between atoms: _262  and  _263
REMARK  112  A    between atoms: _263  and  _264
REMARK  113  A    between atoms: _273  and  _275
REMARK  114  A    between atoms: _275  and  _276
REMARK  115  A    between atoms: _275  and  _278
REMARK  116  A    between atoms: _278  and  _279
REMARK  117  A    between atoms: _284  and  _286
REMARK  118  A    between atoms: _286  and  _287
REMARK  119  A    between atoms: _286  and  _289
REMARK  120  A    between atoms: _289  and  _290
REMARK  121  A    between atoms: _290  and  _291
REMARK  122  A    between atoms: _291  and  _292
REMARK  123  A    between atoms: _301  and  _303
REMARK  124  A    between atoms: _303  and  _304
REMARK  125  A    between atoms: _303  and  _306
REMARK  126  A    between atoms: _306  and  _307
REMARK  127  A    between atoms: _310  and  _312
REMARK  128  A    between atoms: _312  and  _313
REMARK  129  A    between atoms: _312  and  _315
REMARK  130  A    between atoms: _315  and  _316
REMARK  131  A    between atoms: _319  and  _321
REMARK  132  A    between atoms: _321  and  _322
REMARK  133  A    between atoms: _321  and  _324
REMARK  134  A    between atoms: _324  and  _325
REMARK  135  A    between atoms: _328  and  _330
REMARK  136  A    between atoms: _330  and  _331
REMARK  137  A    between atoms: _330  and  _333
REMARK  138  A    between atoms: _333  and  _334
REMARK  139  A    between atoms: _337  and  _339
REMARK  140  A    between atoms: _339  and  _340
REMARK  141  A    between atoms: _339  and  _342
REMARK  142  A    between atoms: _342  and  _343
REMARK  143  A    between atoms: _346  and  _348
REMARK  144  A    between atoms: _348  and  _349
REMARK  145  A    between atoms: _351  and  _353
REMARK  146  A    between atoms: _353  and  _354
REMARK  147  A    between atoms: _357  and  _359
REMARK  148  A    between atoms: _359  and  _360
REMARK  149  A    between atoms: _359  and  _362
REMARK  150  A    between atoms: _362  and  _363
REMARK  151  A    between atoms: _366  and  _368
REMARK  152  A    between atoms: _368  and  _369
REMARK  153  A    between atoms: _368  and  _371
REMARK  154  A    between atoms: _371  and  _372
REMARK  155  A    between atoms: _375  and  _377
REMARK  156  A    between atoms: _377  and  _378
REMARK  157  A    between atoms: _377  and  _380
REMARK  158  A    between atoms: _380  and  _381
REMARK  159  A    between atoms: _384  and  _386
REMARK  160  A    between atoms: _386  and  _387
REMARK  161  A    between atoms: _386  and  _389
REMARK  162  A    between atoms: _392  and  _394
REMARK  163  A    between atoms: _394  and  _395
REMARK  164  A    between atoms: _394  and  _397
REMARK  165  A    between atoms: _397  and  _398
REMARK  166  A    between atoms: _398  and  _399
REMARK  167  A    between atoms: _399  and  _400
REMARK  168  A    between atoms: _400  and  _401
REMARK  169  A    between atoms: _405  and  _407
REMARK  170  A    between atoms: _407  and  _408
REMARK  171  A    between atoms: _407  and  _410
REMARK  172  A    between atoms: _410  and  _411
REMARK  173  A    between atoms: _411  and  _412
REMARK  174  A    between atoms: _414  and  _416
REMARK  175  A    between atoms: _416  and  _417
REMARK  176  A    between atoms: _416  and  _419
REMARK  177  A    between atoms: _419  and  _420
REMARK  178  A    between atoms: _423  and  _425
REMARK  179  A    between atoms: _425  and  _426
REMARK  180  A    between atoms: _428  and  _430
REMARK  181  A    between atoms: _430  and  _431
REMARK  182  A    between atoms: _433  and  _435
REMARK  183  A    between atoms: _435  and  _436
REMARK  184  A    between atoms: _435  and  _438
REMARK  185  A    between atoms: _438  and  _439
REMARK  186  A    between atoms: _442  and  _444
REMARK  187  A    between atoms: _444  and  _445
REMARK  188  A    between atoms: _447  and  _449
REMARK  189  A    between atoms: _449  and  _450
REMARK  190  A    between atoms: _452  and  _454
REMARK  191  A    between atoms: _454  and  _455
REMARK  192  A    between atoms: _454  and  _457
REMARK  193  A    between atoms: _457  and  _458
REMARK  194  A    between atoms: _464  and  _466
REMARK  195  A    between atoms: _466  and  _467
REMARK  196  A    between atoms: _466  and  _469
REMARK  197  A    between atoms: _469  and  _470
REMARK  198  A    between atoms: _473  and  _475
REMARK  199  A    between atoms: _475  and  _476
REMARK  200  A    between atoms: _475  and  _478
REMARK  201  A    between atoms: _481  and  _483
REMARK  202  A    between atoms: _483  and  _484
REMARK  203  A    between atoms: _483  and  _486
REMARK  204  A    between atoms: _486  and  _487
REMARK  205  A    between atoms: _491  and  _492
REMARK  206  A    between atoms: _497  and  _499
REMARK  207  A    between atoms: _499  and  _500
REMARK  208  A    between atoms: _499  and  _502
REMARK  209  A    between atoms: _502  and  _503
REMARK  210  A    between atoms: _507  and  _508
REMARK  211  A    between atoms: _513  and  _515
REMARK  212  A    between atoms: _515  and  _516
REMARK  213  A    between atoms: _515  and  _518
REMARK  214  A    between atoms: _521  and  _523
REMARK  215  A    between atoms: _523  and  _524
REMARK  216  A    between atoms: _523  and  _526
REMARK  217  A    between atoms: _526  and  _527
REMARK  218  A    between atoms: _532  and  _534
REMARK  219  A    between atoms: _534  and  _535
REMARK  220  A    between atoms: _534  and  _537
REMARK  221  A    between atoms: _537  and  _538
REMARK  222  A    between atoms: _541  and  _543
REMARK  223  A    between atoms: _543  and  _544
REMARK  224  A    between atoms: _543  and  _546
REMARK  225  A    between atoms: _546  and  _547
REMARK  226  A    between atoms: _550  and  _552
REMARK  227  A    between atoms: _552  and  _553
REMARK  228  A    between atoms: _555  and  _557
REMARK  229  A    between atoms: _557  and  _558
REMARK  230  A    between atoms: _557  and  _560
REMARK  231  A    between atoms: _560  and  _561
REMARK  232  A    between atoms: _561  and  _562
REMARK  233  A    between atoms: _562  and  _563
REMARK  234  A    between atoms: _572  and  _574
REMARK  235  A    between atoms: _574  and  _575
REMARK  236  A    between atoms: _574  and  _577
REMARK  237  A    between atoms: _577  and  _578
REMARK                            x       y       z     vdW  Elec       q    Type
REMARK                         _______ _______ _______ _____ _____    ______ ____
ROOT
ATOM      1  O   HOH     1       3.875 -11.809 -20.621  0.00  0.00    +0.000 OA
ENDROOT
TORSDOF 0
REMARK  Name = ../refined-set-2016/2pwr/2pwr_pocket.pdb
REMARK  237 active torsions:
REMARK  status: ('A' for Active; 'I' for Inactive)
REMARK    1  A    between atoms: _1  and  _3
REMARK    2  A    between atoms: _3  and  _4
REMARK    3  A    between atoms: _3  and  _6
REMARK    4  A    between atoms: _6  and  _7
REMARK    5  A    between atoms: _7  and  _8
REMARK    6  A    between atoms: _8  and  _9
REMARK    7  A    between atoms: _18  and  _20
REMARK    8  A    between atoms: _20  and  _21
REMARK    9  A    between atoms: _20  and  _23
REMARK   10  A    between atoms: _23  and  _24
REMARK   11  A    between atoms: _27  and  _29
REMARK   12  A    between atoms: _29  and  _30
REMARK   13  A    between atoms: _29  and  _32
REMARK   14  A    between atoms: _32  and  _33
REMARK   15  A    between atoms: _36  and  _38
REMARK   16  A    between atoms: _38  and  _39
REMARK   17  A    between atoms: _38  and  _41
REMARK   18  A    between atoms: _41  and  _42
REMARK   19  A    between atoms: _45  and  _47
REMARK   20  A    between atoms: _47  and  _48
REMARK   21  A    between atoms: _47  and  _50
REMARK   22  A    between atoms: _50  and  _51
REMARK   23  A    between atoms: _54  and  _56
REMARK   24  A    between atoms: _56  and  _57
REMARK   25  A    between atoms: _59  and  _61
REMARK   26  A    between atoms: _61  and  _62
REMARK   27  A    between atoms: _65  and  _67
REMARK   28  A    between atoms: _67  and  _68
REMARK   29  A    between atoms: _67  and  _70
REMARK   30  A    between atoms: _70  and  _71
REMARK   31  A    between atoms: _74  and  _76
REMARK   32  A    between atoms: _76  and  _77
REMARK   33  A    between atoms: _76  and  _79
REMARK   34  A    between atoms: _79  and  _80
REMARK   35  A    between atoms: _83  and  _85
REMARK   36  A    between atoms: _85  and  _86
REMARK   37  A    between atoms: _85  and  _88
REMARK   38  A    between atoms: _88  and  _89
REMARK   39  A    between atoms: _92  and  _94
REMARK   40  A    between atoms: _94  and  _95
REMARK   41  A    between atoms: _94  and  _97
REMARK   42  A    between atoms: _100  and  _102
REMARK   43  A    between atoms: _102  and  _103
REMARK   44  A    between atoms: _102  and  _105
REMARK   45  A    between atoms: _105  and  _106
REMARK   46  A    between atoms: _106  and  _107
REMARK   47  A    between atoms: _107  and  _108
REMARK   48  A    between atoms: _108  and  _109
REMARK   49  A    between atoms: _113  and  _115
REMARK   50  A    between atoms: _115  and  _116
REMARK   51  A    between atoms: _115  and  _118
REMARK   52  A    between atoms: _118  and  _119
REMARK   53  A    between atoms: _119  and  _120
REMARK   54  A    between atoms: _122  and  _124
REMARK   55  A    between atoms: _124  and  _125
REMARK   56  A    between atoms: _124  and  _127
REMARK   57  A    between atoms: _127  and  _128
REMARK   58  A    between atoms: _131  and  _133
REMARK   59  A    between atoms: _133  and  _134
REMARK   60  A    between atoms: _136  and  _138
REMARK   61  A    between atoms: _138  and  _139
REMARK   62  A    between atoms: _141  and  _143
REMARK   63  A    between atoms: _143  and  _144
REMARK   64  A    between atoms: _143  and  _146
REMARK   65  A    between atoms: _146  and  _147
REMARK   66  A    between atoms: _150  and  _152
REMARK   67  A    between atoms: _152  and  _153
REMARK   68  A    between atoms: _155  and  _157
REMARK   69  A    between atoms: _157  and  _158
REMARK   70  A    between atoms: _160  and  _162
REMARK   71  A    between atoms: _162  and  _163
REMARK   72  A    between atoms: _162  and  _165
REMARK   73  A    between atoms: _165  and  _166
REMARK   74  A    between atoms: _172  and  _174
REMARK   75  A    between atoms: _174  and  _175
REMARK   76  A    between atoms: _174  and  _177
REMARK   77  A    between atoms: _177  and  _178
REMARK   78  A    between atoms: _181  and  _183
REMARK   79  A    between atoms: _183  and  _184
REMARK   80  A    between atoms: _183  and  _186
REMARK   81  A    between atoms: _189  and  _191
REMARK   82  A    between atoms: _191  and  _192
REMARK   83  A    between atoms: _191  and  _194
REMARK   84  A    between atoms: _194  and  _195
REMARK   85  A    between atoms: _198  and  _200
REMARK   86  A    between atoms: _200  and  _201
REMARK   87  A    between atoms: _200  and  _203
REMARK   88  A    between atoms: _203  and  _204
REMARK   89  A    between atoms: _208  and  _209
REMARK   90  A    between atoms: _214  and  _216
REMARK   91  A    between atoms: _216  and  _217
REMARK   92  A    between atoms: _216  and  _219
REMARK   93  A    between atoms: _222  and  _224
REMARK   94  A    between atoms: _224  and  _225
REMARK   95  A    between atoms: _224  and  _227
REMARK   96  A    between atoms: _227  and  _228
REMARK   97  A    between atoms: _233  and  _235
REMARK   98  A    between atoms: _235  and  _236
REMARK   99  A    between atoms: _235  and  _238
REMARK  100  A    between atoms: _238  and  _239
REMARK  101  A    between atoms: _242  and  _244
REMARK  102  A    between atoms: _244  and  _245
REMARK  103  A    between atoms: _244  and  _247
REMARK  104  A    between atoms: _247  and  _248
REMARK  105  A    between atoms: _251  and  _253
REMARK  106  A    between atoms: _253  and  _254
REMARK  107  A    between atoms: _256  and  _258
REMARK  108  A    between atoms: _258  and  _259
REMARK  109  A    between atoms: _258  and  _261
REMARK  110  A    between atoms: _261  and  _262
REMARK  111  A    between atoms: _262  and  _263
REMARK  112  A    between atoms: _263  and  _264
REMARK  113  A    between atoms: _273  and  _275
REMARK  114  A    between atoms: _275  and  _276
REMARK  115  A    between atoms: _275  and  _278
REMARK  116  A    between atoms: _278  and  _279
REMARK  117  A    between atoms: _284  and  _286
REMARK  118  A    between atoms: _286  and  _287
REMARK  119  A    between atoms: _286  and  _289
REMARK  120  A    between atoms: _289  and  _290
REMARK  121  A    between atoms: _290  and  _291
REMARK  122  A    between atoms: _291  and  _292
REMARK  123  A    between atoms: _301  and  _303
REMARK  124  A    between atoms: _303  and  _304
REMARK  125  A    between atoms: _303  and  _306
REMARK  126  A    between atoms: _306  and  _307
REMARK  127  A    between atoms: _310  and  _312
REMARK  128  A    between atoms: _312  and  _313
REMARK  129  A    between atoms: _312  and  _315
REMARK  130  A    between atoms: _315  and  _316
REMARK  131  A    between atoms: _319  and  _321
REMARK  132  A    between atoms: _321  and  _322
REMARK  133  A    between atoms: _321  and  _324
REMARK  134  A    between atoms: _324  and  _325
REMARK  135  A    between atoms: _328  and  _330
REMARK  136  A    between atoms: _330  and  _331
REMARK  137  A    between atoms: _330  and  _333
REMARK  138  A    between atoms: _333  and  _334
REMARK  139  A    between atoms: _337  and  _339
REMARK  140  A    between atoms: _339  and  _340
REMARK  141  A    between atoms: _339  and  _342
REMARK  142  A    between atoms: _342  and  _343
REMARK  143  A    between atoms: _346  and  _348
REMARK  144  A    between atoms: _348  and  _349
REMARK  145  A    between atoms: _351  and  _353
REMARK  146  A    between atoms: _353  and  _354
REMARK  147  A    between atoms: _357  and  _359
REMARK  148  A    between atoms: _359  and  _360
REMARK  149  A    between atoms: _359  and  _362
REMARK  150  A    between atoms: _362  and  _363
REMARK  151  A    between atoms: _366  and  _368
REMARK  152  A    between atoms: _368  and  _369
REMARK  153  A    between atoms: _368  and  _371
REMARK  154  A    between atoms: _371  and  _372
REMARK  155  A    between atoms: _375  and  _377
REMARK  156  A    between atoms: _377  and  _378
REMARK  157  A    between atoms: _377  and  _380
REMARK  158  A    between atoms: _380  and  _381
REMARK  159  A    between atoms: _384  and  _386
REMARK  160  A    between atoms: _386  and  _387
REMARK  161  A    between atoms: _386  and  _389
REMARK  162  A    between atoms: _392  and  _394
REMARK  163  A    between atoms: _394  and  _395
REMARK  164  A    between atoms: _394  and  _397
REMARK  165  A    between atoms: _397  and  _398
REMARK  166  A    between atoms: _398  and  _399
REMARK  167  A    between atoms: _399  and  _400
REMARK  168  A    between atoms: _400  and  _401
REMARK  169  A    between atoms: _405  and  _407
REMARK  170  A    between atoms: _407  and  _408
REMARK  171  A    between atoms: _407  and  _410
REMARK  172  A    between atoms: _410  and  _411
REMARK  173  A    between atoms: _411  and  _412
REMARK  174  A    between atoms: _414  and  _416
REMARK  175  A    between atoms: _416  and  _417
REMARK  176  A    between atoms: _416  and  _419
REMARK  177  A    between atoms: _419  and  _420
REMARK  178  A    between atoms: _423  and  _425
REMARK  179  A    between atoms: _425  and  _426
REMARK  180  A    between atoms: _428  and  _430
REMARK  181  A    between atoms: _430  and  _431
REMARK  182  A    between atoms: _433  and  _435
REMARK  183  A    between atoms: _435  and  _436
REMARK  184  A    between atoms: _435  and  _438
REMARK  185  A    between atoms: _438  and  _439
REMARK  186  A    between atoms: _442  and  _444
REMARK  187  A    between atoms: _444  and  _445
REMARK  188  A    between atoms: _447  and  _449
REMARK  189  A    between atoms: _449  and  _450
REMARK  190  A    between atoms: _452  and  _454
REMARK  191  A    between atoms: _454  and  _455
REMARK  192  A    between atoms: _454  and  _457
REMARK  193  A    between atoms: _457  and  _458
REMARK  194  A    between atoms: _464  and  _466
REMARK  195  A    between atoms: _466  and  _467
REMARK  196  A    between atoms: _466  and  _469
REMARK  197  A    between atoms: _469  and  _470
REMARK  198  A    between atoms: _473  and  _475
REMARK  199  A    between atoms: _475  and  _476
REMARK  200  A    between atoms: _475  and  _478
REMARK  201  A    between atoms: _481  and  _483
REMARK  202  A    between atoms: _483  and  _484
REMARK  203  A    between atoms: _483  and  _486
REMARK  204  A    between atoms: _486  and  _487
REMARK  205  A    between atoms: _491  and  _492
REMARK  206  A    between atoms: _497  and  _499
REMARK  207  A    between atoms: _499  and  _500
REMARK  208  A    between atoms: _499  and  _502
REMARK  209  A    between atoms: _502  and  _503
REMARK  210  A    between atoms: _507  and  _508
REMARK  211  A    between atoms: _513  and  _515
REMARK  212  A    between atoms: _515  and  _516
REMARK  213  A    between atoms: _515  and  _518
REMARK  214  A    between atoms: _521  and  _523
REMARK  215  A    between atoms: _523  and  _524
REMARK  216  A    between atoms: _523  and  _526
REMARK  217  A    between atoms: _526  and  _527
REMARK  218  A    between atoms: _532  and  _534
REMARK  219  A    between atoms: _534  and  _535
REMARK  220  A    between atoms: _534  and  _537
REMARK  221  A    between atoms: _537  and  _538
REMARK  222  A    between atoms: _541  and  _543
REMARK  223  A    between atoms: _543  and  _544
REMARK  224  A    between atoms: _543  and  _546
REMARK  225  A    between atoms: _546  and  _547
REMARK  226  A    between atoms: _550  and  _552
REMARK  227  A    between atoms: _552  and  _553
REMARK  228  A    between atoms: _555  and  _557
REMARK  229  A    between atoms: _557  and  _558
REMARK  230  A    between atoms: _557  and  _560
REMARK  231  A    between atoms: _560  and  _561
REMARK  232  A    between atoms: _561  and  _562
REMARK  233  A    between atoms: _562  and  _563
REMARK  234  A    between atoms: _572  and  _574
REMARK  235  A    between atoms: _574  and  _575
REMARK  236  A    between atoms: _574  and  _577
REMARK  237  A    between atoms: _577  and  _578
REMARK                            x       y       z     vdW  Elec       q    Type
REMARK                         _______ _______ _______ _____ _____    ______ ____
ROOT
ATOM      1  O   HOH     1       3.843 -12.445 -16.799  0.00  0.00    +0.000 OA
ENDROOT
TORSDOF 0
REMARK  Name = ../refined-set-2016/2pwr/2pwr_pocket.pdb
REMARK  237 active torsions:
REMARK  status: ('A' for Active; 'I' for Inactive)
REMARK    1  A    between atoms: _1  and  _3
REMARK    2  A    between atoms: _3  and  _4
REMARK    3  A    between atoms: _3  and  _6
REMARK    4  A    between atoms: _6  and  _7
REMARK    5  A    between atoms: _7  and  _8
REMARK    6  A    between atoms: _8  and  _9
REMARK    7  A    between atoms: _18  and  _20
REMARK    8  A    between atoms: _20  and  _21
REMARK    9  A    between atoms: _20  and  _23
REMARK   10  A    between atoms: _23  and  _24
REMARK   11  A    between atoms: _27  and  _29
REMARK   12  A    between atoms: _29  and  _30
REMARK   13  A    between atoms: _29  and  _32
REMARK   14  A    between atoms: _32  and  _33
REMARK   15  A    between atoms: _36  and  _38
REMARK   16  A    between atoms: _38  and  _39
REMARK   17  A    between atoms: _38  and  _41
REMARK   18  A    between atoms: _41  and  _42
REMARK   19  A    between atoms: _45  and  _47
REMARK   20  A    between atoms: _47  and  _48
REMARK   21  A    between atoms: _47  and  _50
REMARK   22  A    between atoms: _50  and  _51
REMARK   23  A    between atoms: _54  and  _56
REMARK   24  A    between atoms: _56  and  _57
REMARK   25  A    between atoms: _59  and  _61
REMARK   26  A    between atoms: _61  and  _62
REMARK   27  A    between atoms: _65  and  _67
REMARK   28  A    between atoms: _67  and  _68
REMARK   29  A    between atoms: _67  and  _70
REMARK   30  A    between atoms: _70  and  _71
REMARK   31  A    between atoms: _74  and  _76
REMARK   32  A    between atoms: _76  and  _77
REMARK   33  A    between atoms: _76  and  _79
REMARK   34  A    between atoms: _79  and  _80
REMARK   35  A    between atoms: _83  and  _85
REMARK   36  A    between atoms: _85  and  _86
REMARK   37  A    between atoms: _85  and  _88
REMARK   38  A    between atoms: _88  and  _89
REMARK   39  A    between atoms: _92  and  _94
REMARK   40  A    between atoms: _94  and  _95
REMARK   41  A    between atoms: _94  and  _97
REMARK   42  A    between atoms: _100  and  _102
REMARK   43  A    between atoms: _102  and  _103
REMARK   44  A    between atoms: _102  and  _105
REMARK   45  A    between atoms: _105  and  _106
REMARK   46  A    between atoms: _106  and  _107
REMARK   47  A    between atoms: _107  and  _108
REMARK   48  A    between atoms: _108  and  _109
REMARK   49  A    between atoms: _113  and  _115
REMARK   50  A    between atoms: _115  and  _116
REMARK   51  A    between atoms: _115  and  _118
REMARK   52  A    between atoms: _118  and  _119
REMARK   53  A    between atoms: _119  and  _120
REMARK   54  A    between atoms: _122  and  _124
REMARK   55  A    between atoms: _124  and  _125
REMARK   56  A    between atoms: _124  and  _127
REMARK   57  A    between atoms: _127  and  _128
REMARK   58  A    between atoms: _131  and  _133
REMARK   59  A    between atoms: _133  and  _134
REMARK   60  A    between atoms: _136  and  _138
REMARK   61  A    between atoms: _138  and  _139
REMARK   62  A    between atoms: _141  and  _143
REMARK   63  A    between atoms: _143  and  _144
REMARK   64  A    between atoms: _143  and  _146
REMARK   65  A    between atoms: _146  and  _147
REMARK   66  A    between atoms: _150  and  _152
REMARK   67  A    between atoms: _152  and  _153
REMARK   68  A    between atoms: _155  and  _157
REMARK   69  A    between atoms: _157  and  _158
REMARK   70  A    between atoms: _160  and  _162
REMARK   71  A    between atoms: _162  and  _163
REMARK   72  A    between atoms: _162  and  _165
REMARK   73  A    between atoms: _165  and  _166
REMARK   74  A    between atoms: _172  and  _174
REMARK   75  A    between atoms: _174  and  _175
REMARK   76  A    between atoms: _174  and  _177
REMARK   77  A    between atoms: _177  and  _178
REMARK   78  A    between atoms: _181  and  _183
REMARK   79  A    between atoms: _183  and  _184
REMARK   80  A    between atoms: _183  and  _186
REMARK   81  A    between atoms: _189  and  _191
REMARK   82  A    between atoms: _191  and  _192
REMARK   83  A    between atoms: _191  and  _194
REMARK   84  A    between atoms: _194  and  _195
REMARK   85  A    between atoms: _198  and  _200
REMARK   86  A    between atoms: _200  and  _201
REMARK   87  A    between atoms: _200  and  _203
REMARK   88  A    between atoms: _203  and  _204
REMARK   89  A    between atoms: _208  and  _209
REMARK   90  A    between atoms: _214  and  _216
REMARK   91  A    between atoms: _216  and  _217
REMARK   92  A    between atoms: _216  and  _219
REMARK   93  A    between atoms: _222  and  _224
REMARK   94  A    between atoms: _224  and  _225
REMARK   95  A    between atoms: _224  and  _227
REMARK   96  A    between atoms: _227  and  _228
REMARK   97  A    between atoms: _233  and  _235
REMARK   98  A    between atoms: _235  and  _236
REMARK   99  A    between atoms: _235  and  _238
REMARK  100  A    between atoms: _238  and  _239
REMARK  101  A    between atoms: _242  and  _244
REMARK  102  A    between atoms: _244  and  _245
REMARK  103  A    between atoms: _244  and  _247
REMARK  104  A    between atoms: _247  and  _248
REMARK  105  A    between atoms: _251  and  _253
REMARK  106  A    between atoms: _253  and  _254
REMARK  107  A    between atoms: _256  and  _258
REMARK  108  A    between atoms: _258  and  _259
REMARK  109  A    between atoms: _258  and  _261
REMARK  110  A    between atoms: _261  and  _262
REMARK  111  A    between atoms: _262  and  _263
REMARK  112  A    between atoms: _263  and  _264
REMARK  113  A    between atoms: _273  and  _275
REMARK  114  A    between atoms: _275  and  _276
REMARK  115  A    between atoms: _275  and  _278
REMARK  116  A    between atoms: _278  and  _279
REMARK  117  A    between atoms: _284  and  _286
REMARK  118  A    between atoms: _286  and  _287
REMARK  119  A    between atoms: _286  and  _289
REMARK  120  A    between atoms: _289  and  _290
REMARK  121  A    between atoms: _290  and  _291
REMARK  122  A    between atoms: _291  and  _292
REMARK  123  A    between atoms: _301  and  _303
REMARK  124  A    between atoms: _303  and  _304
REMARK  125  A    between atoms: _303  and  _306
REMARK  126  A    between atoms: _306  and  _307
REMARK  127  A    between atoms: _310  and  _312
REMARK  128  A    between atoms: _312  and  _313
REMARK  129  A    between atoms: _312  and  _315
REMARK  130  A    between atoms: _315  and  _316
REMARK  131  A    between atoms: _319  and  _321
REMARK  132  A    between atoms: _321  and  _322
REMARK  133  A    between atoms: _321  and  _324
REMARK  134  A    between atoms: _324  and  _325
REMARK  135  A    between atoms: _328  and  _330
REMARK  136  A    between atoms: _330  and  _331
REMARK  137  A    between atoms: _330  and  _333
REMARK  138  A    between atoms: _333  and  _334
REMARK  139  A    between atoms: _337  and  _339
REMARK  140  A    between atoms: _339  and  _340
REMARK  141  A    between atoms: _339  and  _342
REMARK  142  A    between atoms: _342  and  _343
REMARK  143  A    between atoms: _346  and  _348
REMARK  144  A    between atoms: _348  and  _349
REMARK  145  A    between atoms: _351  and  _353
REMARK  146  A    between atoms: _353  and  _354
REMARK  147  A    between atoms: _357  and  _359
REMARK  148  A    between atoms: _359  and  _360
REMARK  149  A    between atoms: _359  and  _362
REMARK  150  A    between atoms: _362  and  _363
REMARK  151  A    between atoms: _366  and  _368
REMARK  152  A    between atoms: _368  and  _369
REMARK  153  A    between atoms: _368  and  _371
REMARK  154  A    between atoms: _371  and  _372
REMARK  155  A    between atoms: _375  and  _377
REMARK  156  A    between atoms: _377  and  _378
REMARK  157  A    between atoms: _377  and  _380
REMARK  158  A    between atoms: _380  and  _381
REMARK  159  A    between atoms: _384  and  _386
REMARK  160  A    between atoms: _386  and  _387
REMARK  161  A    between atoms: _386  and  _389
REMARK  162  A    between atoms: _392  and  _394
REMARK  163  A    between atoms: _394  and  _395
REMARK  164  A    between atoms: _394  and  _397
REMARK  165  A    between atoms: _397  and  _398
REMARK  166  A    between atoms: _398  and  _399
REMARK  167  A    between atoms: _399  and  _400
REMARK  168  A    between atoms: _400  and  _401
REMARK  169  A    between atoms: _405  and  _407
REMARK  170  A    between atoms: _407  and  _408
REMARK  171  A    between atoms: _407  and  _410
REMARK  172  A    between atoms: _410  and  _411
REMARK  173  A    between atoms: _411  and  _412
REMARK  174  A    between atoms: _414  and  _416
REMARK  175  A    between atoms: _416  and  _417
REMARK  176  A    between atoms: _416  and  _419
REMARK  177  A    between atoms: _419  and  _420
REMARK  178  A    between atoms: _423  and  _425
REMARK  179  A    between atoms: _425  and  _426
REMARK  180  A    between atoms: _428  and  _430
REMARK  181  A    between atoms: _430  and  _431
REMARK  182  A    between atoms: _433  and  _435
REMARK  183  A    between atoms: _435  and  _436
REMARK  184  A    between atoms: _435  and  _438
REMARK  185  A    between atoms: _438  and  _439
REMARK  186  A    between atoms: _442  and  _444
REMARK  187  A    between atoms: _444  and  _445
REMARK  188  A    between atoms: _447  and  _449
REMARK  189  A    between atoms: _449  and  _450
REMARK  190  A    between atoms: _452  and  _454
REMARK  191  A    between atoms: _454  and  _455
REMARK  192  A    between atoms: _454  and  _457
REMARK  193  A    between atoms: _457  and  _458
REMARK  194  A    between atoms: _464  and  _466
REMARK  195  A    between atoms: _466  and  _467
REMARK  196  A    between atoms: _466  and  _469
REMARK  197  A    between atoms: _469  and  _470
REMARK  198  A    between atoms: _473  and  _475
REMARK  199  A    between atoms: _475  and  _476
REMARK  200  A    between atoms: _475  and  _478
REMARK  201  A    between atoms: _481  and  _483
REMARK  202  A    between atoms: _483  and  _484
REMARK  203  A    between atoms: _483  and  _486
REMARK  204  A    between atoms: _486  and  _487
REMARK  205  A    between atoms: _491  and  _492
REMARK  206  A    between atoms: _497  and  _499
REMARK  207  A    between atoms: _499  and  _500
REMARK  208  A    between atoms: _499  and  _502
REMARK  209  A    between atoms: _502  and  _503
REMARK  210  A    between atoms: _507  and  _508
REMARK  211  A    between atoms: _513  and  _515
REMARK  212  A    between atoms: _515  and  _516
REMARK  213  A    between atoms: _515  and  _518
REMARK  214  A    between atoms: _521  and  _523
REMARK  215  A    between atoms: _523  and  _524
REMARK  216  A    between atoms: _523  and  _526
REMARK  217  A    between atoms: _526  and  _527
REMARK  218  A    between atoms: _532  and  _534
REMARK  219  A    between atoms: _534  and  _535
REMARK  220  A    between atoms: _534  and  _537
REMARK  221  A    between atoms: _537  and  _538
REMARK  222  A    between atoms: _541  and  _543
REMARK  223  A    between atoms: _543  and  _544
REMARK  224  A    between atoms: _543  and  _546
REMARK  225  A    between atoms: _546  and  _547
REMARK  226  A    between atoms: _550  and  _552
REMARK  227  A    between atoms: _552  and  _553
REMARK  228  A    between atoms: _555  and  _557
REMARK  229  A    between atoms: _557  and  _558
REMARK  230  A    between atoms: _557  and  _560
REMARK  231  A    between atoms: _560  and  _561
REMARK  232  A    between atoms: _561  and  _562
REMARK  233  A    between atoms: _562  and  _563
REMARK  234  A    between atoms: _572  and  _574
REMARK  235  A    between atoms: _574  and  _575
REMARK  236  A    between atoms: _574  and  _577
REMARK  237  A    between atoms: _577  and  _578
REMARK                            x       y       z     vdW  Elec       q    Type
REMARK                         _______ _______ _______ _____ _____    ______ ____
ROOT
ATOM      1  O   HOH     1      18.515 -24.912 -13.295  0.00  0.00    +0.000 OA
ENDROOT
TORSDOF 0
REMARK  Name = ../refined-set-2016/2pwr/2pwr_pocket.pdb
REMARK  237 active torsions:
REMARK  status: ('A' for Active; 'I' for Inactive)
REMARK    1  A    between atoms: _1  and  _3
REMARK    2  A    between atoms: _3  and  _4
REMARK    3  A    between atoms: _3  and  _6
REMARK    4  A    between atoms: _6  and  _7
REMARK    5  A    between atoms: _7  and  _8
REMARK    6  A    between atoms: _8  and  _9
REMARK    7  A    between atoms: _18  and  _20
REMARK    8  A    between atoms: _20  and  _21
REMARK    9  A    between atoms: _20  and  _23
REMARK   10  A    between atoms: _23  and  _24
REMARK   11  A    between atoms: _27  and  _29
REMARK   12  A    between atoms: _29  and  _30
REMARK   13  A    between atoms: _29  and  _32
REMARK   14  A    between atoms: _32  and  _33
REMARK   15  A    between atoms: _36  and  _38
REMARK   16  A    between atoms: _38  and  _39
REMARK   17  A    between atoms: _38  and  _41
REMARK   18  A    between atoms: _41  and  _42
REMARK   19  A    between atoms: _45  and  _47
REMARK   20  A    between atoms: _47  and  _48
REMARK   21  A    between atoms: _47  and  _50
REMARK   22  A    between atoms: _50  and  _51
REMARK   23  A    between atoms: _54  and  _56
REMARK   24  A    between atoms: _56  and  _57
REMARK   25  A    between atoms: _59  and  _61
REMARK   26  A    between atoms: _61  and  _62
REMARK   27  A    between atoms: _65  and  _67
REMARK   28  A    between atoms: _67  and  _68
REMARK   29  A    between atoms: _67  and  _70
REMARK   30  A    between atoms: _70  and  _71
REMARK   31  A    between atoms: _74  and  _76
REMARK   32  A    between atoms: _76  and  _77
REMARK   33  A    between atoms: _76  and  _79
REMARK   34  A    between atoms: _79  and  _80
REMARK   35  A    between atoms: _83  and  _85
REMARK   36  A    between atoms: _85  and  _86
REMARK   37  A    between atoms: _85  and  _88
REMARK   38  A    between atoms: _88  and  _89
REMARK   39  A    between atoms: _92  and  _94
REMARK   40  A    between atoms: _94  and  _95
REMARK   41  A    between atoms: _94  and  _97
REMARK   42  A    between atoms: _100  and  _102
REMARK   43  A    between atoms: _102  and  _103
REMARK   44  A    between atoms: _102  and  _105
REMARK   45  A    between atoms: _105  and  _106
REMARK   46  A    between atoms: _106  and  _107
REMARK   47  A    between atoms: _107  and  _108
REMARK   48  A    between atoms: _108  and  _109
REMARK   49  A    between atoms: _113  and  _115
REMARK   50  A    between atoms: _115  and  _116
REMARK   51  A    between atoms: _115  and  _118
REMARK   52  A    between atoms: _118  and  _119
REMARK   53  A    between atoms: _119  and  _120
REMARK   54  A    between atoms: _122  and  _124
REMARK   55  A    between atoms: _124  and  _125
REMARK   56  A    between atoms: _124  and  _127
REMARK   57  A    between atoms: _127  and  _128
REMARK   58  A    between atoms: _131  and  _133
REMARK   59  A    between atoms: _133  and  _134
REMARK   60  A    between atoms: _136  and  _138
REMARK   61  A    between atoms: _138  and  _139
REMARK   62  A    between atoms: _141  and  _143
REMARK   63  A    between atoms: _143  and  _144
REMARK   64  A    between atoms: _143  and  _146
REMARK   65  A    between atoms: _146  and  _147
REMARK   66  A    between atoms: _150  and  _152
REMARK   67  A    between atoms: _152  and  _153
REMARK   68  A    between atoms: _155  and  _157
REMARK   69  A    between atoms: _157  and  _158
REMARK   70  A    between atoms: _160  and  _162
REMARK   71  A    between atoms: _162  and  _163
REMARK   72  A    between atoms: _162  and  _165
REMARK   73  A    between atoms: _165  and  _166
REMARK   74  A    between atoms: _172  and  _174
REMARK   75  A    between atoms: _174  and  _175
REMARK   76  A    between atoms: _174  and  _177
REMARK   77  A    between atoms: _177  and  _178
REMARK   78  A    between atoms: _181  and  _183
REMARK   79  A    between atoms: _183  and  _184
REMARK   80  A    between atoms: _183  and  _186
REMARK   81  A    between atoms: _189  and  _191
REMARK   82  A    between atoms: _191  and  _192
REMARK   83  A    between atoms: _191  and  _194
REMARK   84  A    between atoms: _194  and  _195
REMARK   85  A    between atoms: _198  and  _200
REMARK   86  A    between atoms: _200  and  _201
REMARK   87  A    between atoms: _200  and  _203
REMARK   88  A    between atoms: _203  and  _204
REMARK   89  A    between atoms: _208  and  _209
REMARK   90  A    between atoms: _214  and  _216
REMARK   91  A    between atoms: _216  and  _217
REMARK   92  A    between atoms: _216  and  _219
REMARK   93  A    between atoms: _222  and  _224
REMARK   94  A    between atoms: _224  and  _225
REMARK   95  A    between atoms: _224  and  _227
REMARK   96  A    between atoms: _227  and  _228
REMARK   97  A    between atoms: _233  and  _235
REMARK   98  A    between atoms: _235  and  _236
REMARK   99  A    between atoms: _235  and  _238
REMARK  100  A    between atoms: _238  and  _239
REMARK  101  A    between atoms: _242  and  _244
REMARK  102  A    between atoms: _244  and  _245
REMARK  103  A    between atoms: _244  and  _247
REMARK  104  A    between atoms: _247  and  _248
REMARK  105  A    between atoms: _251  and  _253
REMARK  106  A    between atoms: _253  and  _254
REMARK  107  A    between atoms: _256  and  _258
REMARK  108  A    between atoms: _258  and  _259
REMARK  109  A    between atoms: _258  and  _261
REMARK  110  A    between atoms: _261  and  _262
REMARK  111  A    between atoms: _262  and  _263
REMARK  112  A    between atoms: _263  and  _264
REMARK  113  A    between atoms: _273  and  _275
REMARK  114  A    between atoms: _275  and  _276
REMARK  115  A    between atoms: _275  and  _278
REMARK  116  A    between atoms: _278  and  _279
REMARK  117  A    between atoms: _284  and  _286
REMARK  118  A    between atoms: _286  and  _287
REMARK  119  A    between atoms: _286  and  _289
REMARK  120  A    between atoms: _289  and  _290
REMARK  121  A    between atoms: _290  and  _291
REMARK  122  A    between atoms: _291  and  _292
REMARK  123  A    between atoms: _301  and  _303
REMARK  124  A    between atoms: _303  and  _304
REMARK  125  A    between atoms: _303  and  _306
REMARK  126  A    between atoms: _306  and  _307
REMARK  127  A    between atoms: _310  and  _312
REMARK  128  A    between atoms: _312  and  _313
REMARK  129  A    between atoms: _312  and  _315
REMARK  130  A    between atoms: _315  and  _316
REMARK  131  A    between atoms: _319  and  _321
REMARK  132  A    between atoms: _321  and  _322
REMARK  133  A    between atoms: _321  and  _324
REMARK  134  A    between atoms: _324  and  _325
REMARK  135  A    between atoms: _328  and  _330
REMARK  136  A    between atoms: _330  and  _331
REMARK  137  A    between atoms: _330  and  _333
REMARK  138  A    between atoms: _333  and  _334
REMARK  139  A    between atoms: _337  and  _339
REMARK  140  A    between atoms: _339  and  _340
REMARK  141  A    between atoms: _339  and  _342
REMARK  142  A    between atoms: _342  and  _343
REMARK  143  A    between atoms: _346  and  _348
REMARK  144  A    between atoms: _348  and  _349
REMARK  145  A    between atoms: _351  and  _353
REMARK  146  A    between atoms: _353  and  _354
REMARK  147  A    between atoms: _357  and  _359
REMARK  148  A    between atoms: _359  and  _360
REMARK  149  A    between atoms: _359  and  _362
REMARK  150  A    between atoms: _362  and  _363
REMARK  151  A    between atoms: _366  and  _368
REMARK  152  A    between atoms: _368  and  _369
REMARK  153  A    between atoms: _368  and  _371
REMARK  154  A    between atoms: _371  and  _372
REMARK  155  A    between atoms: _375  and  _377
REMARK  156  A    between atoms: _377  and  _378
REMARK  157  A    between atoms: _377  and  _380
REMARK  158  A    between atoms: _380  and  _381
REMARK  159  A    between atoms: _384  and  _386
REMARK  160  A    between atoms: _386  and  _387
REMARK  161  A    between atoms: _386  and  _389
REMARK  162  A    between atoms: _392  and  _394
REMARK  163  A    between atoms: _394  and  _395
REMARK  164  A    between atoms: _394  and  _397
REMARK  165  A    between atoms: _397  and  _398
REMARK  166  A    between atoms: _398  and  _399
REMARK  167  A    between atoms: _399  and  _400
REMARK  168  A    between atoms: _400  and  _401
REMARK  169  A    between atoms: _405  and  _407
REMARK  170  A    between atoms: _407  and  _408
REMARK  171  A    between atoms: _407  and  _410
REMARK  172  A    between atoms: _410  and  _411
REMARK  173  A    between atoms: _411  and  _412
REMARK  174  A    between atoms: _414  and  _416
REMARK  175  A    between atoms: _416  and  _417
REMARK  176  A    between atoms: _416  and  _419
REMARK  177  A    between atoms: _419  and  _420
REMARK  178  A    between atoms: _423  and  _425
REMARK  179  A    between atoms: _425  and  _426
REMARK  180  A    between atoms: _428  and  _430
REMARK  181  A    between atoms: _430  and  _431
REMARK  182  A    between atoms: _433  and  _435
REMARK  183  A    between atoms: _435  and  _436
REMARK  184  A    between atoms: _435  and  _438
REMARK  185  A    between atoms: _438  and  _439
REMARK  186  A    between atoms: _442  and  _444
REMARK  187  A    between atoms: _444  and  _445
REMARK  188  A    between atoms: _447  and  _449
REMARK  189  A    between atoms: _449  and  _450
REMARK  190  A    between atoms: _452  and  _454
REMARK  191  A    between atoms: _454  and  _455
REMARK  192  A    between atoms: _454  and  _457
REMARK  193  A    between atoms: _457  and  _458
REMARK  194  A    between atoms: _464  and  _466
REMARK  195  A    between atoms: _466  and  _467
REMARK  196  A    between atoms: _466  and  _469
REMARK  197  A    between atoms: _469  and  _470
REMARK  198  A    between atoms: _473  and  _475
REMARK  199  A    between atoms: _475  and  _476
REMARK  200  A    between atoms: _475  and  _478
REMARK  201  A    between atoms: _481  and  _483
REMARK  202  A    between atoms: _483  and  _484
REMARK  203  A    between atoms: _483  and  _486
REMARK  204  A    between atoms: _486  and  _487
REMARK  205  A    between atoms: _491  and  _492
REMARK  206  A    between atoms: _497  and  _499
REMARK  207  A    between atoms: _499  and  _500
REMARK  208  A    between atoms: _499  and  _502
REMARK  209  A    between atoms: _502  and  _503
REMARK  210  A    between atoms: _507  and  _508
REMARK  211  A    between atoms: _513  and  _515
REMARK  212  A    between atoms: _515  and  _516
REMARK  213  A    between atoms: _515  and  _518
REMARK  214  A    between atoms: _521  and  _523
REMARK  215  A    between atoms: _523  and  _524
REMARK  216  A    between atoms: _523  and  _526
REMARK  217  A    between atoms: _526  and  _527
REMARK  218  A    between atoms: _532  and  _534
REMARK  219  A    between atoms: _534  and  _535
REMARK  220  A    between atoms: _534  and  _537
REMARK  221  A    between atoms: _537  and  _538
REMARK  222  A    between atoms: _541  and  _543
REMARK  223  A    between atoms: _543  and  _544
REMARK  224  A    between atoms: _543  and  _546
REMARK  225  A    between atoms: _546  and  _547
REMARK  226  A    between atoms: _550  and  _552
REMARK  227  A    between atoms: _552  and  _553
REMARK  228  A    between atoms: _555  and  _557
REMARK  229  A    between atoms: _557  and  _558
REMARK  230  A    between atoms: _557  and  _560
REMARK  231  A    between atoms: _560  and  _561
REMARK  232  A    between atoms: _561  and  _562
REMARK  233  A    between atoms: _562  and  _563
REMARK  234  A    between atoms: _572  and  _574
REMARK  235  A    between atoms: _574  and  _575
REMARK  236  A    between atoms: _574  and  _577
REMARK  237  A    between atoms: _577  and  _578
REMARK                            x       y       z     vdW  Elec       q    Type
REMARK                         _______ _______ _______ _____ _____    ______ ____
ROOT
ATOM      1  O   HOH     1       8.541 -13.787 -21.037  0.00  0.00    +0.000 OA
ENDROOT
TORSDOF 0
REMARK  Name = ../refined-set-2016/2pwr/2pwr_pocket.pdb
REMARK  237 active torsions:
REMARK  status: ('A' for Active; 'I' for Inactive)
REMARK    1  A    between atoms: _1  and  _3
REMARK    2  A    between atoms: _3  and  _4
REMARK    3  A    between atoms: _3  and  _6
REMARK    4  A    between atoms: _6  and  _7
REMARK    5  A    between atoms: _7  and  _8
REMARK    6  A    between atoms: _8  and  _9
REMARK    7  A    between atoms: _18  and  _20
REMARK    8  A    between atoms: _20  and  _21
REMARK    9  A    between atoms: _20  and  _23
REMARK   10  A    between atoms: _23  and  _24
REMARK   11  A    between atoms: _27  and  _29
REMARK   12  A    between atoms: _29  and  _30
REMARK   13  A    between atoms: _29  and  _32
REMARK   14  A    between atoms: _32  and  _33
REMARK   15  A    between atoms: _36  and  _38
REMARK   16  A    between atoms: _38  and  _39
REMARK   17  A    between atoms: _38  and  _41
REMARK   18  A    between atoms: _41  and  _42
REMARK   19  A    between atoms: _45  and  _47
REMARK   20  A    between atoms: _47  and  _48
REMARK   21  A    between atoms: _47  and  _50
REMARK   22  A    between atoms: _50  and  _51
REMARK   23  A    between atoms: _54  and  _56
REMARK   24  A    between atoms: _56  and  _57
REMARK   25  A    between atoms: _59  and  _61
REMARK   26  A    between atoms: _61  and  _62
REMARK   27  A    between atoms: _65  and  _67
REMARK   28  A    between atoms: _67  and  _68
REMARK   29  A    between atoms: _67  and  _70
REMARK   30  A    between atoms: _70  and  _71
REMARK   31  A    between atoms: _74  and  _76
REMARK   32  A    between atoms: _76  and  _77
REMARK   33  A    between atoms: _76  and  _79
REMARK   34  A    between atoms: _79  and  _80
REMARK   35  A    between atoms: _83  and  _85
REMARK   36  A    between atoms: _85  and  _86
REMARK   37  A    between atoms: _85  and  _88
REMARK   38  A    between atoms: _88  and  _89
REMARK   39  A    between atoms: _92  and  _94
REMARK   40  A    between atoms: _94  and  _95
REMARK   41  A    between atoms: _94  and  _97
REMARK   42  A    between atoms: _100  and  _102
REMARK   43  A    between atoms: _102  and  _103
REMARK   44  A    between atoms: _102  and  _105
REMARK   45  A    between atoms: _105  and  _106
REMARK   46  A    between atoms: _106  and  _107
REMARK   47  A    between atoms: _107  and  _108
REMARK   48  A    between atoms: _108  and  _109
REMARK   49  A    between atoms: _113  and  _115
REMARK   50  A    between atoms: _115  and  _116
REMARK   51  A    between atoms: _115  and  _118
REMARK   52  A    between atoms: _118  and  _119
REMARK   53  A    between atoms: _119  and  _120
REMARK   54  A    between atoms: _122  and  _124
REMARK   55  A    between atoms: _124  and  _125
REMARK   56  A    between atoms: _124  and  _127
REMARK   57  A    between atoms: _127  and  _128
REMARK   58  A    between atoms: _131  and  _133
REMARK   59  A    between atoms: _133  and  _134
REMARK   60  A    between atoms: _136  and  _138
REMARK   61  A    between atoms: _138  and  _139
REMARK   62  A    between atoms: _141  and  _143
REMARK   63  A    between atoms: _143  and  _144
REMARK   64  A    between atoms: _143  and  _146
REMARK   65  A    between atoms: _146  and  _147
REMARK   66  A    between atoms: _150  and  _152
REMARK   67  A    between atoms: _152  and  _153
REMARK   68  A    between atoms: _155  and  _157
REMARK   69  A    between atoms: _157  and  _158
REMARK   70  A    between atoms: _160  and  _162
REMARK   71  A    between atoms: _162  and  _163
REMARK   72  A    between atoms: _162  and  _165
REMARK   73  A    between atoms: _165  and  _166
REMARK   74  A    between atoms: _172  and  _174
REMARK   75  A    between atoms: _174  and  _175
REMARK   76  A    between atoms: _174  and  _177
REMARK   77  A    between atoms: _177  and  _178
REMARK   78  A    between atoms: _181  and  _183
REMARK   79  A    between atoms: _183  and  _184
REMARK   80  A    between atoms: _183  and  _186
REMARK   81  A    between atoms: _189  and  _191
REMARK   82  A    between atoms: _191  and  _192
REMARK   83  A    between atoms: _191  and  _194
REMARK   84  A    between atoms: _194  and  _195
REMARK   85  A    between atoms: _198  and  _200
REMARK   86  A    between atoms: _200  and  _201
REMARK   87  A    between atoms: _200  and  _203
REMARK   88  A    between atoms: _203  and  _204
REMARK   89  A    between atoms: _208  and  _209
REMARK   90  A    between atoms: _214  and  _216
REMARK   91  A    between atoms: _216  and  _217
REMARK   92  A    between atoms: _216  and  _219
REMARK   93  A    between atoms: _222  and  _224
REMARK   94  A    between atoms: _224  and  _225
REMARK   95  A    between atoms: _224  and  _227
REMARK   96  A    between atoms: _227  and  _228
REMARK   97  A    between atoms: _233  and  _235
REMARK   98  A    between atoms: _235  and  _236
REMARK   99  A    between atoms: _235  and  _238
REMARK  100  A    between atoms: _238  and  _239
REMARK  101  A    between atoms: _242  and  _244
REMARK  102  A    between atoms: _244  and  _245
REMARK  103  A    between atoms: _244  and  _247
REMARK  104  A    between atoms: _247  and  _248
REMARK  105  A    between atoms: _251  and  _253
REMARK  106  A    between atoms: _253  and  _254
REMARK  107  A    between atoms: _256  and  _258
REMARK  108  A    between atoms: _258  and  _259
REMARK  109  A    between atoms: _258  and  _261
REMARK  110  A    between atoms: _261  and  _262
REMARK  111  A    between atoms: _262  and  _263
REMARK  112  A    between atoms: _263  and  _264
REMARK  113  A    between atoms: _273  and  _275
REMARK  114  A    between atoms: _275  and  _276
REMARK  115  A    between atoms: _275  and  _278
REMARK  116  A    between atoms: _278  and  _279
REMARK  117  A    between atoms: _284  and  _286
REMARK  118  A    between atoms: _286  and  _287
REMARK  119  A    between atoms: _286  and  _289
REMARK  120  A    between atoms: _289  and  _290
REMARK  121  A    between atoms: _290  and  _291
REMARK  122  A    between atoms: _291  and  _292
REMARK  123  A    between atoms: _301  and  _303
REMARK  124  A    between atoms: _303  and  _304
REMARK  125  A    between atoms: _303  and  _306
REMARK  126  A    between atoms: _306  and  _307
REMARK  127  A    between atoms: _310  and  _312
REMARK  128  A    between atoms: _312  and  _313
REMARK  129  A    between atoms: _312  and  _315
REMARK  130  A    between atoms: _315  and  _316
REMARK  131  A    between atoms: _319  and  _321
REMARK  132  A    between atoms: _321  and  _322
REMARK  133  A    between atoms: _321  and  _324
REMARK  134  A    between atoms: _324  and  _325
REMARK  135  A    between atoms: _328  and  _330
REMARK  136  A    between atoms: _330  and  _331
REMARK  137  A    between atoms: _330  and  _333
REMARK  138  A    between atoms: _333  and  _334
REMARK  139  A    between atoms: _337  and  _339
REMARK  140  A    between atoms: _339  and  _340
REMARK  141  A    between atoms: _339  and  _342
REMARK  142  A    between atoms: _342  and  _343
REMARK  143  A    between atoms: _346  and  _348
REMARK  144  A    between atoms: _348  and  _349
REMARK  145  A    between atoms: _351  and  _353
REMARK  146  A    between atoms: _353  and  _354
REMARK  147  A    between atoms: _357  and  _359
REMARK  148  A    between atoms: _359  and  _360
REMARK  149  A    between atoms: _359  and  _362
REMARK  150  A    between atoms: _362  and  _363
REMARK  151  A    between atoms: _366  and  _368
REMARK  152  A    between atoms: _368  and  _369
REMARK  153  A    between atoms: _368  and  _371
REMARK  154  A    between atoms: _371  and  _372
REMARK  155  A    between atoms: _375  and  _377
REMARK  156  A    between atoms: _377  and  _378
REMARK  157  A    between atoms: _377  and  _380
REMARK  158  A    between atoms: _380  and  _381
REMARK  159  A    between atoms: _384  and  _386
REMARK  160  A    between atoms: _386  and  _387
REMARK  161  A    between atoms: _386  and  _389
REMARK  162  A    between atoms: _392  and  _394
REMARK  163  A    between atoms: _394  and  _395
REMARK  164  A    between atoms: _394  and  _397
REMARK  165  A    between atoms: _397  and  _398
REMARK  166  A    between atoms: _398  and  _399
REMARK  167  A    between atoms: _399  and  _400
REMARK  168  A    between atoms: _400  and  _401
REMARK  169  A    between atoms: _405  and  _407
REMARK  170  A    between atoms: _407  and  _408
REMARK  171  A    between atoms: _407  and  _410
REMARK  172  A    between atoms: _410  and  _411
REMARK  173  A    between atoms: _411  and  _412
REMARK  174  A    between atoms: _414  and  _416
REMARK  175  A    between atoms: _416  and  _417
REMARK  176  A    between atoms: _416  and  _419
REMARK  177  A    between atoms: _419  and  _420
REMARK  178  A    between atoms: _423  and  _425
REMARK  179  A    between atoms: _425  and  _426
REMARK  180  A    between atoms: _428  and  _430
REMARK  181  A    between atoms: _430  and  _431
REMARK  182  A    between atoms: _433  and  _435
REMARK  183  A    between atoms: _435  and  _436
REMARK  184  A    between atoms: _435  and  _438
REMARK  185  A    between atoms: _438  and  _439
REMARK  186  A    between atoms: _442  and  _444
REMARK  187  A    between atoms: _444  and  _445
REMARK  188  A    between atoms: _447  and  _449
REMARK  189  A    between atoms: _449  and  _450
REMARK  190  A    between atoms: _452  and  _454
REMARK  191  A    between atoms: _454  and  _455
REMARK  192  A    between atoms: _454  and  _457
REMARK  193  A    between atoms: _457  and  _458
REMARK  194  A    between atoms: _464  and  _466
REMARK  195  A    between atoms: _466  and  _467
REMARK  196  A    between atoms: _466  and  _469
REMARK  197  A    between atoms: _469  and  _470
REMARK  198  A    between atoms: _473  and  _475
REMARK  199  A    between atoms: _475  and  _476
REMARK  200  A    between atoms: _475  and  _478
REMARK  201  A    between atoms: _481  and  _483
REMARK  202  A    between atoms: _483  and  _484
REMARK  203  A    between atoms: _483  and  _486
REMARK  204  A    between atoms: _486  and  _487
REMARK  205  A    between atoms: _491  and  _492
REMARK  206  A    between atoms: _497  and  _499
REMARK  207  A    between atoms: _499  and  _500
REMARK  208  A    between atoms: _499  and  _502
REMARK  209  A    between atoms: _502  and  _503
REMARK  210  A    between atoms: _507  and  _508
REMARK  211  A    between atoms: _513  and  _515
REMARK  212  A    between atoms: _515  and  _516
REMARK  213  A    between atoms: _515  and  _518
REMARK  214  A    between atoms: _521  and  _523
REMARK  215  A    between atoms: _523  and  _524
REMARK  216  A    between atoms: _523  and  _526
REMARK  217  A    between atoms: _526  and  _527
REMARK  218  A    between atoms: _532  and  _534
REMARK  219  A    between atoms: _534  and  _535
REMARK  220  A    between atoms: _534  and  _537
REMARK  221  A    between atoms: _537  and  _538
REMARK  222  A    between atoms: _541  and  _543
REMARK  223  A    between atoms: _543  and  _544
REMARK  224  A    between atoms: _543  and  _546
REMARK  225  A    between atoms: _546  and  _547
REMARK  226  A    between atoms: _550  and  _552
REMARK  227  A    between atoms: _552  and  _553
REMARK  228  A    between atoms: _555  and  _557
REMARK  229  A    between atoms: _557  and  _558
REMARK  230  A    between atoms: _557  and  _560
REMARK  231  A    between atoms: _560  and  _561
REMARK  232  A    between atoms: _561  and  _562
REMARK  233  A    between atoms: _562  and  _563
REMARK  234  A    between atoms: _572  and  _574
REMARK  235  A    between atoms: _574  and  _575
REMARK  236  A    between atoms: _574  and  _577
REMARK  237  A    between atoms: _577  and  _578
REMARK                            x       y       z     vdW  Elec       q    Type
REMARK                         _______ _______ _______ _____ _____    ______ ____
ROOT
ATOM      1  O   HOH     1       4.090 -18.287 -17.909  0.00  0.00    +0.000 OA
ENDROOT
TORSDOF 0
REMARK  Name = ../refined-set-2016/2pwr/2pwr_pocket.pdb
REMARK  237 active torsions:
REMARK  status: ('A' for Active; 'I' for Inactive)
REMARK    1  A    between atoms: _1  and  _3
REMARK    2  A    between atoms: _3  and  _4
REMARK    3  A    between atoms: _3  and  _6
REMARK    4  A    between atoms: _6  and  _7
REMARK    5  A    between atoms: _7  and  _8
REMARK    6  A    between atoms: _8  and  _9
REMARK    7  A    between atoms: _18  and  _20
REMARK    8  A    between atoms: _20  and  _21
REMARK    9  A    between atoms: _20  and  _23
REMARK   10  A    between atoms: _23  and  _24
REMARK   11  A    between atoms: _27  and  _29
REMARK   12  A    between atoms: _29  and  _30
REMARK   13  A    between atoms: _29  and  _32
REMARK   14  A    between atoms: _32  and  _33
REMARK   15  A    between atoms: _36  and  _38
REMARK   16  A    between atoms: _38  and  _39
REMARK   17  A    between atoms: _38  and  _41
REMARK   18  A    between atoms: _41  and  _42
REMARK   19  A    between atoms: _45  and  _47
REMARK   20  A    between atoms: _47  and  _48
REMARK   21  A    between atoms: _47  and  _50
REMARK   22  A    between atoms: _50  and  _51
REMARK   23  A    between atoms: _54  and  _56
REMARK   24  A    between atoms: _56  and  _57
REMARK   25  A    between atoms: _59  and  _61
REMARK   26  A    between atoms: _61  and  _62
REMARK   27  A    between atoms: _65  and  _67
REMARK   28  A    between atoms: _67  and  _68
REMARK   29  A    between atoms: _67  and  _70
REMARK   30  A    between atoms: _70  and  _71
REMARK   31  A    between atoms: _74  and  _76
REMARK   32  A    between atoms: _76  and  _77
REMARK   33  A    between atoms: _76  and  _79
REMARK   34  A    between atoms: _79  and  _80
REMARK   35  A    between atoms: _83  and  _85
REMARK   36  A    between atoms: _85  and  _86
REMARK   37  A    between atoms: _85  and  _88
REMARK   38  A    between atoms: _88  and  _89
REMARK   39  A    between atoms: _92  and  _94
REMARK   40  A    between atoms: _94  and  _95
REMARK   41  A    between atoms: _94  and  _97
REMARK   42  A    between atoms: _100  and  _102
REMARK   43  A    between atoms: _102  and  _103
REMARK   44  A    between atoms: _102  and  _105
REMARK   45  A    between atoms: _105  and  _106
REMARK   46  A    between atoms: _106  and  _107
REMARK   47  A    between atoms: _107  and  _108
REMARK   48  A    between atoms: _108  and  _109
REMARK   49  A    between atoms: _113  and  _115
REMARK   50  A    between atoms: _115  and  _116
REMARK   51  A    between atoms: _115  and  _118
REMARK   52  A    between atoms: _118  and  _119
REMARK   53  A    between atoms: _119  and  _120
REMARK   54  A    between atoms: _122  and  _124
REMARK   55  A    between atoms: _124  and  _125
REMARK   56  A    between atoms: _124  and  _127
REMARK   57  A    between atoms: _127  and  _128
REMARK   58  A    between atoms: _131  and  _133
REMARK   59  A    between atoms: _133  and  _134
REMARK   60  A    between atoms: _136  and  _138
REMARK   61  A    between atoms: _138  and  _139
REMARK   62  A    between atoms: _141  and  _143
REMARK   63  A    between atoms: _143  and  _144
REMARK   64  A    between atoms: _143  and  _146
REMARK   65  A    between atoms: _146  and  _147
REMARK   66  A    between atoms: _150  and  _152
REMARK   67  A    between atoms: _152  and  _153
REMARK   68  A    between atoms: _155  and  _157
REMARK   69  A    between atoms: _157  and  _158
REMARK   70  A    between atoms: _160  and  _162
REMARK   71  A    between atoms: _162  and  _163
REMARK   72  A    between atoms: _162  and  _165
REMARK   73  A    between atoms: _165  and  _166
REMARK   74  A    between atoms: _172  and  _174
REMARK   75  A    between atoms: _174  and  _175
REMARK   76  A    between atoms: _174  and  _177
REMARK   77  A    between atoms: _177  and  _178
REMARK   78  A    between atoms: _181  and  _183
REMARK   79  A    between atoms: _183  and  _184
REMARK   80  A    between atoms: _183  and  _186
REMARK   81  A    between atoms: _189  and  _191
REMARK   82  A    between atoms: _191  and  _192
REMARK   83  A    between atoms: _191  and  _194
REMARK   84  A    between atoms: _194  and  _195
REMARK   85  A    between atoms: _198  and  _200
REMARK   86  A    between atoms: _200  and  _201
REMARK   87  A    between atoms: _200  and  _203
REMARK   88  A    between atoms: _203  and  _204
REMARK   89  A    between atoms: _208  and  _209
REMARK   90  A    between atoms: _214  and  _216
REMARK   91  A    between atoms: _216  and  _217
REMARK   92  A    between atoms: _216  and  _219
REMARK   93  A    between atoms: _222  and  _224
REMARK   94  A    between atoms: _224  and  _225
REMARK   95  A    between atoms: _224  and  _227
REMARK   96  A    between atoms: _227  and  _228
REMARK   97  A    between atoms: _233  and  _235
REMARK   98  A    between atoms: _235  and  _236
REMARK   99  A    between atoms: _235  and  _238
REMARK  100  A    between atoms: _238  and  _239
REMARK  101  A    between atoms: _242  and  _244
REMARK  102  A    between atoms: _244  and  _245
REMARK  103  A    between atoms: _244  and  _247
REMARK  104  A    between atoms: _247  and  _248
REMARK  105  A    between atoms: _251  and  _253
REMARK  106  A    between atoms: _253  and  _254
REMARK  107  A    between atoms: _256  and  _258
REMARK  108  A    between atoms: _258  and  _259
REMARK  109  A    between atoms: _258  and  _261
REMARK  110  A    between atoms: _261  and  _262
REMARK  111  A    between atoms: _262  and  _263
REMARK  112  A    between atoms: _263  and  _264
REMARK  113  A    between atoms: _273  and  _275
REMARK  114  A    between atoms: _275  and  _276
REMARK  115  A    between atoms: _275  and  _278
REMARK  116  A    between atoms: _278  and  _279
REMARK  117  A    between atoms: _284  and  _286
REMARK  118  A    between atoms: _286  and  _287
REMARK  119  A    between atoms: _286  and  _289
REMARK  120  A    between atoms: _289  and  _290
REMARK  121  A    between atoms: _290  and  _291
REMARK  122  A    between atoms: _291  and  _292
REMARK  123  A    between atoms: _301  and  _303
REMARK  124  A    between atoms: _303  and  _304
REMARK  125  A    between atoms: _303  and  _306
REMARK  126  A    between atoms: _306  and  _307
REMARK  127  A    between atoms: _310  and  _312
REMARK  128  A    between atoms: _312  and  _313
REMARK  129  A    between atoms: _312  and  _315
REMARK  130  A    between atoms: _315  and  _316
REMARK  131  A    between atoms: _319  and  _321
REMARK  132  A    between atoms: _321  and  _322
REMARK  133  A    between atoms: _321  and  _324
REMARK  134  A    between atoms: _324  and  _325
REMARK  135  A    between atoms: _328  and  _330
REMARK  136  A    between atoms: _330  and  _331
REMARK  137  A    between atoms: _330  and  _333
REMARK  138  A    between atoms: _333  and  _334
REMARK  139  A    between atoms: _337  and  _339
REMARK  140  A    between atoms: _339  and  _340
REMARK  141  A    between atoms: _339  and  _342
REMARK  142  A    between atoms: _342  and  _343
REMARK  143  A    between atoms: _346  and  _348
REMARK  144  A    between atoms: _348  and  _349
REMARK  145  A    between atoms: _351  and  _353
REMARK  146  A    between atoms: _353  and  _354
REMARK  147  A    between atoms: _357  and  _359
REMARK  148  A    between atoms: _359  and  _360
REMARK  149  A    between atoms: _359  and  _362
REMARK  150  A    between atoms: _362  and  _363
REMARK  151  A    between atoms: _366  and  _368
REMARK  152  A    between atoms: _368  and  _369
REMARK  153  A    between atoms: _368  and  _371
REMARK  154  A    between atoms: _371  and  _372
REMARK  155  A    between atoms: _375  and  _377
REMARK  156  A    between atoms: _377  and  _378
REMARK  157  A    between atoms: _377  and  _380
REMARK  158  A    between atoms: _380  and  _381
REMARK  159  A    between atoms: _384  and  _386
REMARK  160  A    between atoms: _386  and  _387
REMARK  161  A    between atoms: _386  and  _389
REMARK  162  A    between atoms: _392  and  _394
REMARK  163  A    between atoms: _394  and  _395
REMARK  164  A    between atoms: _394  and  _397
REMARK  165  A    between atoms: _397  and  _398
REMARK  166  A    between atoms: _398  and  _399
REMARK  167  A    between atoms: _399  and  _400
REMARK  168  A    between atoms: _400  and  _401
REMARK  169  A    between atoms: _405  and  _407
REMARK  170  A    between atoms: _407  and  _408
REMARK  171  A    between atoms: _407  and  _410
REMARK  172  A    between atoms: _410  and  _411
REMARK  173  A    between atoms: _411  and  _412
REMARK  174  A    between atoms: _414  and  _416
REMARK  175  A    between atoms: _416  and  _417
REMARK  176  A    between atoms: _416  and  _419
REMARK  177  A    between atoms: _419  and  _420
REMARK  178  A    between atoms: _423  and  _425
REMARK  179  A    between atoms: _425  and  _426
REMARK  180  A    between atoms: _428  and  _430
REMARK  181  A    between atoms: _430  and  _431
REMARK  182  A    between atoms: _433  and  _435
REMARK  183  A    between atoms: _435  and  _436
REMARK  184  A    between atoms: _435  and  _438
REMARK  185  A    between atoms: _438  and  _439
REMARK  186  A    between atoms: _442  and  _444
REMARK  187  A    between atoms: _444  and  _445
REMARK  188  A    between atoms: _447  and  _449
REMARK  189  A    between atoms: _449  and  _450
REMARK  190  A    between atoms: _452  and  _454
REMARK  191  A    between atoms: _454  and  _455
REMARK  192  A    between atoms: _454  and  _457
REMARK  193  A    between atoms: _457  and  _458
REMARK  194  A    between atoms: _464  and  _466
REMARK  195  A    between atoms: _466  and  _467
REMARK  196  A    between atoms: _466  and  _469
REMARK  197  A    between atoms: _469  and  _470
REMARK  198  A    between atoms: _473  and  _475
REMARK  199  A    between atoms: _475  and  _476
REMARK  200  A    between atoms: _475  and  _478
REMARK  201  A    between atoms: _481  and  _483
REMARK  202  A    between atoms: _483  and  _484
REMARK  203  A    between atoms: _483  and  _486
REMARK  204  A    between atoms: _486  and  _487
REMARK  205  A    between atoms: _491  and  _492
REMARK  206  A    between atoms: _497  and  _499
REMARK  207  A    between atoms: _499  and  _500
REMARK  208  A    between atoms: _499  and  _502
REMARK  209  A    between atoms: _502  and  _503
REMARK  210  A    between atoms: _507  and  _508
REMARK  211  A    between atoms: _513  and  _515
REMARK  212  A    between atoms: _515  and  _516
REMARK  213  A    between atoms: _515  and  _518
REMARK  214  A    between atoms: _521  and  _523
REMARK  215  A    between atoms: _523  and  _524
REMARK  216  A    between atoms: _523  and  _526
REMARK  217  A    between atoms: _526  and  _527
REMARK  218  A    between atoms: _532  and  _534
REMARK  219  A    between atoms: _534  and  _535
REMARK  220  A    between atoms: _534  and  _537
REMARK  221  A    between atoms: _537  and  _538
REMARK  222  A    between atoms: _541  and  _543
REMARK  223  A    between atoms: _543  and  _544
REMARK  224  A    between atoms: _543  and  _546
REMARK  225  A    between atoms: _546  and  _547
REMARK  226  A    between atoms: _550  and  _552
REMARK  227  A    between atoms: _552  and  _553
REMARK  228  A    between atoms: _555  and  _557
REMARK  229  A    between atoms: _557  and  _558
REMARK  230  A    between atoms: _557  and  _560
REMARK  231  A    between atoms: _560  and  _561
REMARK  232  A    between atoms: _561  and  _562
REMARK  233  A    between atoms: _562  and  _563
REMARK  234  A    between atoms: _572  and  _574
REMARK  235  A    between atoms: _574  and  _575
REMARK  236  A    between atoms: _574  and  _577
REMARK  237  A    between atoms: _577  and  _578
REMARK                            x       y       z     vdW  Elec       q    Type
REMARK                         _______ _______ _______ _____ _____    ______ ____
ROOT
ATOM      1  O   HOH     1      21.059 -19.035 -18.349  0.00  0.00    +0.000 OA
ENDROOT
TORSDOF 0
REMARK  Name = ../refined-set-2016/2pwr/2pwr_pocket.pdb
REMARK  237 active torsions:
REMARK  status: ('A' for Active; 'I' for Inactive)
REMARK    1  A    between atoms: _1  and  _3
REMARK    2  A    between atoms: _3  and  _4
REMARK    3  A    between atoms: _3  and  _6
REMARK    4  A    between atoms: _6  and  _7
REMARK    5  A    between atoms: _7  and  _8
REMARK    6  A    between atoms: _8  and  _9
REMARK    7  A    between atoms: _18  and  _20
REMARK    8  A    between atoms: _20  and  _21
REMARK    9  A    between atoms: _20  and  _23
REMARK   10  A    between atoms: _23  and  _24
REMARK   11  A    between atoms: _27  and  _29
REMARK   12  A    between atoms: _29  and  _30
REMARK   13  A    between atoms: _29  and  _32
REMARK   14  A    between atoms: _32  and  _33
REMARK   15  A    between atoms: _36  and  _38
REMARK   16  A    between atoms: _38  and  _39
REMARK   17  A    between atoms: _38  and  _41
REMARK   18  A    between atoms: _41  and  _42
REMARK   19  A    between atoms: _45  and  _47
REMARK   20  A    between atoms: _47  and  _48
REMARK   21  A    between atoms: _47  and  _50
REMARK   22  A    between atoms: _50  and  _51
REMARK   23  A    between atoms: _54  and  _56
REMARK   24  A    between atoms: _56  and  _57
REMARK   25  A    between atoms: _59  and  _61
REMARK   26  A    between atoms: _61  and  _62
REMARK   27  A    between atoms: _65  and  _67
REMARK   28  A    between atoms: _67  and  _68
REMARK   29  A    between atoms: _67  and  _70
REMARK   30  A    between atoms: _70  and  _71
REMARK   31  A    between atoms: _74  and  _76
REMARK   32  A    between atoms: _76  and  _77
REMARK   33  A    between atoms: _76  and  _79
REMARK   34  A    between atoms: _79  and  _80
REMARK   35  A    between atoms: _83  and  _85
REMARK   36  A    between atoms: _85  and  _86
REMARK   37  A    between atoms: _85  and  _88
REMARK   38  A    between atoms: _88  and  _89
REMARK   39  A    between atoms: _92  and  _94
REMARK   40  A    between atoms: _94  and  _95
REMARK   41  A    between atoms: _94  and  _97
REMARK   42  A    between atoms: _100  and  _102
REMARK   43  A    between atoms: _102  and  _103
REMARK   44  A    between atoms: _102  and  _105
REMARK   45  A    between atoms: _105  and  _106
REMARK   46  A    between atoms: _106  and  _107
REMARK   47  A    between atoms: _107  and  _108
REMARK   48  A    between atoms: _108  and  _109
REMARK   49  A    between atoms: _113  and  _115
REMARK   50  A    between atoms: _115  and  _116
REMARK   51  A    between atoms: _115  and  _118
REMARK   52  A    between atoms: _118  and  _119
REMARK   53  A    between atoms: _119  and  _120
REMARK   54  A    between atoms: _122  and  _124
REMARK   55  A    between atoms: _124  and  _125
REMARK   56  A    between atoms: _124  and  _127
REMARK   57  A    between atoms: _127  and  _128
REMARK   58  A    between atoms: _131  and  _133
REMARK   59  A    between atoms: _133  and  _134
REMARK   60  A    between atoms: _136  and  _138
REMARK   61  A    between atoms: _138  and  _139
REMARK   62  A    between atoms: _141  and  _143
REMARK   63  A    between atoms: _143  and  _144
REMARK   64  A    between atoms: _143  and  _146
REMARK   65  A    between atoms: _146  and  _147
REMARK   66  A    between atoms: _150  and  _152
REMARK   67  A    between atoms: _152  and  _153
REMARK   68  A    between atoms: _155  and  _157
REMARK   69  A    between atoms: _157  and  _158
REMARK   70  A    between atoms: _160  and  _162
REMARK   71  A    between atoms: _162  and  _163
REMARK   72  A    between atoms: _162  and  _165
REMARK   73  A    between atoms: _165  and  _166
REMARK   74  A    between atoms: _172  and  _174
REMARK   75  A    between atoms: _174  and  _175
REMARK   76  A    between atoms: _174  and  _177
REMARK   77  A    between atoms: _177  and  _178
REMARK   78  A    between atoms: _181  and  _183
REMARK   79  A    between atoms: _183  and  _184
REMARK   80  A    between atoms: _183  and  _186
REMARK   81  A    between atoms: _189  and  _191
REMARK   82  A    between atoms: _191  and  _192
REMARK   83  A    between atoms: _191  and  _194
REMARK   84  A    between atoms: _194  and  _195
REMARK   85  A    between atoms: _198  and  _200
REMARK   86  A    between atoms: _200  and  _201
REMARK   87  A    between atoms: _200  and  _203
REMARK   88  A    between atoms: _203  and  _204
REMARK   89  A    between atoms: _208  and  _209
REMARK   90  A    between atoms: _214  and  _216
REMARK   91  A    between atoms: _216  and  _217
REMARK   92  A    between atoms: _216  and  _219
REMARK   93  A    between atoms: _222  and  _224
REMARK   94  A    between atoms: _224  and  _225
REMARK   95  A    between atoms: _224  and  _227
REMARK   96  A    between atoms: _227  and  _228
REMARK   97  A    between atoms: _233  and  _235
REMARK   98  A    between atoms: _235  and  _236
REMARK   99  A    between atoms: _235  and  _238
REMARK  100  A    between atoms: _238  and  _239
REMARK  101  A    between atoms: _242  and  _244
REMARK  102  A    between atoms: _244  and  _245
REMARK  103  A    between atoms: _244  and  _247
REMARK  104  A    between atoms: _247  and  _248
REMARK  105  A    between atoms: _251  and  _253
REMARK  106  A    between atoms: _253  and  _254
REMARK  107  A    between atoms: _256  and  _258
REMARK  108  A    between atoms: _258  and  _259
REMARK  109  A    between atoms: _258  and  _261
REMARK  110  A    between atoms: _261  and  _262
REMARK  111  A    between atoms: _262  and  _263
REMARK  112  A    between atoms: _263  and  _264
REMARK  113  A    between atoms: _273  and  _275
REMARK  114  A    between atoms: _275  and  _276
REMARK  115  A    between atoms: _275  and  _278
REMARK  116  A    between atoms: _278  and  _279
REMARK  117  A    between atoms: _284  and  _286
REMARK  118  A    between atoms: _286  and  _287
REMARK  119  A    between atoms: _286  and  _289
REMARK  120  A    between atoms: _289  and  _290
REMARK  121  A    between atoms: _290  and  _291
REMARK  122  A    between atoms: _291  and  _292
REMARK  123  A    between atoms: _301  and  _303
REMARK  124  A    between atoms: _303  and  _304
REMARK  125  A    between atoms: _303  and  _306
REMARK  126  A    between atoms: _306  and  _307
REMARK  127  A    between atoms: _310  and  _312
REMARK  128  A    between atoms: _312  and  _313
REMARK  129  A    between atoms: _312  and  _315
REMARK  130  A    between atoms: _315  and  _316
REMARK  131  A    between atoms: _319  and  _321
REMARK  132  A    between atoms: _321  and  _322
REMARK  133  A    between atoms: _321  and  _324
REMARK  134  A    between atoms: _324  and  _325
REMARK  135  A    between atoms: _328  and  _330
REMARK  136  A    between atoms: _330  and  _331
REMARK  137  A    between atoms: _330  and  _333
REMARK  138  A    between atoms: _333  and  _334
REMARK  139  A    between atoms: _337  and  _339
REMARK  140  A    between atoms: _339  and  _340
REMARK  141  A    between atoms: _339  and  _342
REMARK  142  A    between atoms: _342  and  _343
REMARK  143  A    between atoms: _346  and  _348
REMARK  144  A    between atoms: _348  and  _349
REMARK  145  A    between atoms: _351  and  _353
REMARK  146  A    between atoms: _353  and  _354
REMARK  147  A    between atoms: _357  and  _359
REMARK  148  A    between atoms: _359  and  _360
REMARK  149  A    between atoms: _359  and  _362
REMARK  150  A    between atoms: _362  and  _363
REMARK  151  A    between atoms: _366  and  _368
REMARK  152  A    between atoms: _368  and  _369
REMARK  153  A    between atoms: _368  and  _371
REMARK  154  A    between atoms: _371  and  _372
REMARK  155  A    between atoms: _375  and  _377
REMARK  156  A    between atoms: _377  and  _378
REMARK  157  A    between atoms: _377  and  _380
REMARK  158  A    between atoms: _380  and  _381
REMARK  159  A    between atoms: _384  and  _386
REMARK  160  A    between atoms: _386  and  _387
REMARK  161  A    between atoms: _386  and  _389
REMARK  162  A    between atoms: _392  and  _394
REMARK  163  A    between atoms: _394  and  _395
REMARK  164  A    between atoms: _394  and  _397
REMARK  165  A    between atoms: _397  and  _398
REMARK  166  A    between atoms: _398  and  _399
REMARK  167  A    between atoms: _399  and  _400
REMARK  168  A    between atoms: _400  and  _401
REMARK  169  A    between atoms: _405  and  _407
REMARK  170  A    between atoms: _407  and  _408
REMARK  171  A    between atoms: _407  and  _410
REMARK  172  A    between atoms: _410  and  _411
REMARK  173  A    between atoms: _411  and  _412
REMARK  174  A    between atoms: _414  and  _416
REMARK  175  A    between atoms: _416  and  _417
REMARK  176  A    between atoms: _416  and  _419
REMARK  177  A    between atoms: _419  and  _420
REMARK  178  A    between atoms: _423  and  _425
REMARK  179  A    between atoms: _425  and  _426
REMARK  180  A    between atoms: _428  and  _430
REMARK  181  A    between atoms: _430  and  _431
REMARK  182  A    between atoms: _433  and  _435
REMARK  183  A    between atoms: _435  and  _436
REMARK  184  A    between atoms: _435  and  _438
REMARK  185  A    between atoms: _438  and  _439
REMARK  186  A    between atoms: _442  and  _444
REMARK  187  A    between atoms: _444  and  _445
REMARK  188  A    between atoms: _447  and  _449
REMARK  189  A    between atoms: _449  and  _450
REMARK  190  A    between atoms: _452  and  _454
REMARK  191  A    between atoms: _454  and  _455
REMARK  192  A    between atoms: _454  and  _457
REMARK  193  A    between atoms: _457  and  _458
REMARK  194  A    between atoms: _464  and  _466
REMARK  195  A    between atoms: _466  and  _467
REMARK  196  A    between atoms: _466  and  _469
REMARK  197  A    between atoms: _469  and  _470
REMARK  198  A    between atoms: _473  and  _475
REMARK  199  A    between atoms: _475  and  _476
REMARK  200  A    between atoms: _475  and  _478
REMARK  201  A    between atoms: _481  and  _483
REMARK  202  A    between atoms: _483  and  _484
REMARK  203  A    between atoms: _483  and  _486
REMARK  204  A    between atoms: _486  and  _487
REMARK  205  A    between atoms: _491  and  _492
REMARK  206  A    between atoms: _497  and  _499
REMARK  207  A    between atoms: _499  and  _500
REMARK  208  A    between atoms: _499  and  _502
REMARK  209  A    between atoms: _502  and  _503
REMARK  210  A    between atoms: _507  and  _508
REMARK  211  A    between atoms: _513  and  _515
REMARK  212  A    between atoms: _515  and  _516
REMARK  213  A    between atoms: _515  and  _518
REMARK  214  A    between atoms: _521  and  _523
REMARK  215  A    between atoms: _523  and  _524
REMARK  216  A    between atoms: _523  and  _526
REMARK  217  A    between atoms: _526  and  _527
REMARK  218  A    between atoms: _532  and  _534
REMARK  219  A    between atoms: _534  and  _535
REMARK  220  A    between atoms: _534  and  _537
REMARK  221  A    between atoms: _537  and  _538
REMARK  222  A    between atoms: _541  and  _543
REMARK  223  A    between atoms: _543  and  _544
REMARK  224  A    between atoms: _543  and  _546
REMARK  225  A    between atoms: _546  and  _547
REMARK  226  A    between atoms: _550  and  _552
REMARK  227  A    between atoms: _552  and  _553
REMARK  228  A    between atoms: _555  and  _557
REMARK  229  A    between atoms: _557  and  _558
REMARK  230  A    between atoms: _557  and  _560
REMARK  231  A    between atoms: _560  and  _561
REMARK  232  A    between atoms: _561  and  _562
REMARK  233  A    between atoms: _562  and  _563
REMARK  234  A    between atoms: _572  and  _574
REMARK  235  A    between atoms: _574  and  _575
REMARK  236  A    between atoms: _574  and  _577
REMARK  237  A    between atoms: _577  and  _578
REMARK                            x       y       z     vdW  Elec       q    Type
REMARK                         _______ _______ _______ _____ _____    ______ ____
ROOT
ATOM      1  O   HOH     1       3.850 -17.307 -15.813  0.00  0.00    +0.000 OA
ENDROOT
TORSDOF 0
REMARK  Name = ../refined-set-2016/2pwr/2pwr_pocket.pdb
REMARK  237 active torsions:
REMARK  status: ('A' for Active; 'I' for Inactive)
REMARK    1  A    between atoms: _1  and  _3
REMARK    2  A    between atoms: _3  and  _4
REMARK    3  A    between atoms: _3  and  _6
REMARK    4  A    between atoms: _6  and  _7
REMARK    5  A    between atoms: _7  and  _8
REMARK    6  A    between atoms: _8  and  _9
REMARK    7  A    between atoms: _18  and  _20
REMARK    8  A    between atoms: _20  and  _21
REMARK    9  A    between atoms: _20  and  _23
REMARK   10  A    between atoms: _23  and  _24
REMARK   11  A    between atoms: _27  and  _29
REMARK   12  A    between atoms: _29  and  _30
REMARK   13  A    between atoms: _29  and  _32
REMARK   14  A    between atoms: _32  and  _33
REMARK   15  A    between atoms: _36  and  _38
REMARK   16  A    between atoms: _38  and  _39
REMARK   17  A    between atoms: _38  and  _41
REMARK   18  A    between atoms: _41  and  _42
REMARK   19  A    between atoms: _45  and  _47
REMARK   20  A    between atoms: _47  and  _48
REMARK   21  A    between atoms: _47  and  _50
REMARK   22  A    between atoms: _50  and  _51
REMARK   23  A    between atoms: _54  and  _56
REMARK   24  A    between atoms: _56  and  _57
REMARK   25  A    between atoms: _59  and  _61
REMARK   26  A    between atoms: _61  and  _62
REMARK   27  A    between atoms: _65  and  _67
REMARK   28  A    between atoms: _67  and  _68
REMARK   29  A    between atoms: _67  and  _70
REMARK   30  A    between atoms: _70  and  _71
REMARK   31  A    between atoms: _74  and  _76
REMARK   32  A    between atoms: _76  and  _77
REMARK   33  A    between atoms: _76  and  _79
REMARK   34  A    between atoms: _79  and  _80
REMARK   35  A    between atoms: _83  and  _85
REMARK   36  A    between atoms: _85  and  _86
REMARK   37  A    between atoms: _85  and  _88
REMARK   38  A    between atoms: _88  and  _89
REMARK   39  A    between atoms: _92  and  _94
REMARK   40  A    between atoms: _94  and  _95
REMARK   41  A    between atoms: _94  and  _97
REMARK   42  A    between atoms: _100  and  _102
REMARK   43  A    between atoms: _102  and  _103
REMARK   44  A    between atoms: _102  and  _105
REMARK   45  A    between atoms: _105  and  _106
REMARK   46  A    between atoms: _106  and  _107
REMARK   47  A    between atoms: _107  and  _108
REMARK   48  A    between atoms: _108  and  _109
REMARK   49  A    between atoms: _113  and  _115
REMARK   50  A    between atoms: _115  and  _116
REMARK   51  A    between atoms: _115  and  _118
REMARK   52  A    between atoms: _118  and  _119
REMARK   53  A    between atoms: _119  and  _120
REMARK   54  A    between atoms: _122  and  _124
REMARK   55  A    between atoms: _124  and  _125
REMARK   56  A    between atoms: _124  and  _127
REMARK   57  A    between atoms: _127  and  _128
REMARK   58  A    between atoms: _131  and  _133
REMARK   59  A    between atoms: _133  and  _134
REMARK   60  A    between atoms: _136  and  _138
REMARK   61  A    between atoms: _138  and  _139
REMARK   62  A    between atoms: _141  and  _143
REMARK   63  A    between atoms: _143  and  _144
REMARK   64  A    between atoms: _143  and  _146
REMARK   65  A    between atoms: _146  and  _147
REMARK   66  A    between atoms: _150  and  _152
REMARK   67  A    between atoms: _152  and  _153
REMARK   68  A    between atoms: _155  and  _157
REMARK   69  A    between atoms: _157  and  _158
REMARK   70  A    between atoms: _160  and  _162
REMARK   71  A    between atoms: _162  and  _163
REMARK   72  A    between atoms: _162  and  _165
REMARK   73  A    between atoms: _165  and  _166
REMARK   74  A    between atoms: _172  and  _174
REMARK   75  A    between atoms: _174  and  _175
REMARK   76  A    between atoms: _174  and  _177
REMARK   77  A    between atoms: _177  and  _178
REMARK   78  A    between atoms: _181  and  _183
REMARK   79  A    between atoms: _183  and  _184
REMARK   80  A    between atoms: _183  and  _186
REMARK   81  A    between atoms: _189  and  _191
REMARK   82  A    between atoms: _191  and  _192
REMARK   83  A    between atoms: _191  and  _194
REMARK   84  A    between atoms: _194  and  _195
REMARK   85  A    between atoms: _198  and  _200
REMARK   86  A    between atoms: _200  and  _201
REMARK   87  A    between atoms: _200  and  _203
REMARK   88  A    between atoms: _203  and  _204
REMARK   89  A    between atoms: _208  and  _209
REMARK   90  A    between atoms: _214  and  _216
REMARK   91  A    between atoms: _216  and  _217
REMARK   92  A    between atoms: _216  and  _219
REMARK   93  A    between atoms: _222  and  _224
REMARK   94  A    between atoms: _224  and  _225
REMARK   95  A    between atoms: _224  and  _227
REMARK   96  A    between atoms: _227  and  _228
REMARK   97  A    between atoms: _233  and  _235
REMARK   98  A    between atoms: _235  and  _236
REMARK   99  A    between atoms: _235  and  _238
REMARK  100  A    between atoms: _238  and  _239
REMARK  101  A    between atoms: _242  and  _244
REMARK  102  A    between atoms: _244  and  _245
REMARK  103  A    between atoms: _244  and  _247
REMARK  104  A    between atoms: _247  and  _248
REMARK  105  A    between atoms: _251  and  _253
REMARK  106  A    between atoms: _253  and  _254
REMARK  107  A    between atoms: _256  and  _258
REMARK  108  A    between atoms: _258  and  _259
REMARK  109  A    between atoms: _258  and  _261
REMARK  110  A    between atoms: _261  and  _262
REMARK  111  A    between atoms: _262  and  _263
REMARK  112  A    between atoms: _263  and  _264
REMARK  113  A    between atoms: _273  and  _275
REMARK  114  A    between atoms: _275  and  _276
REMARK  115  A    between atoms: _275  and  _278
REMARK  116  A    between atoms: _278  and  _279
REMARK  117  A    between atoms: _284  and  _286
REMARK  118  A    between atoms: _286  and  _287
REMARK  119  A    between atoms: _286  and  _289
REMARK  120  A    between atoms: _289  and  _290
REMARK  121  A    between atoms: _290  and  _291
REMARK  122  A    between atoms: _291  and  _292
REMARK  123  A    between atoms: _301  and  _303
REMARK  124  A    between atoms: _303  and  _304
REMARK  125  A    between atoms: _303  and  _306
REMARK  126  A    between atoms: _306  and  _307
REMARK  127  A    between atoms: _310  and  _312
REMARK  128  A    between atoms: _312  and  _313
REMARK  129  A    between atoms: _312  and  _315
REMARK  130  A    between atoms: _315  and  _316
REMARK  131  A    between atoms: _319  and  _321
REMARK  132  A    between atoms: _321  and  _322
REMARK  133  A    between atoms: _321  and  _324
REMARK  134  A    between atoms: _324  and  _325
REMARK  135  A    between atoms: _328  and  _330
REMARK  136  A    between atoms: _330  and  _331
REMARK  137  A    between atoms: _330  and  _333
REMARK  138  A    between atoms: _333  and  _334
REMARK  139  A    between atoms: _337  and  _339
REMARK  140  A    between atoms: _339  and  _340
REMARK  141  A    between atoms: _339  and  _342
REMARK  142  A    between atoms: _342  and  _343
REMARK  143  A    between atoms: _346  and  _348
REMARK  144  A    between atoms: _348  and  _349
REMARK  145  A    between atoms: _351  and  _353
REMARK  146  A    between atoms: _353  and  _354
REMARK  147  A    between atoms: _357  and  _359
REMARK  148  A    between atoms: _359  and  _360
REMARK  149  A    between atoms: _359  and  _362
REMARK  150  A    between atoms: _362  and  _363
REMARK  151  A    between atoms: _366  and  _368
REMARK  152  A    between atoms: _368  and  _369
REMARK  153  A    between atoms: _368  and  _371
REMARK  154  A    between atoms: _371  and  _372
REMARK  155  A    between atoms: _375  and  _377
REMARK  156  A    between atoms: _377  and  _378
REMARK  157  A    between atoms: _377  and  _380
REMARK  158  A    between atoms: _380  and  _381
REMARK  159  A    between atoms: _384  and  _386
REMARK  160  A    between atoms: _386  and  _387
REMARK  161  A    between atoms: _386  and  _389
REMARK  162  A    between atoms: _392  and  _394
REMARK  163  A    between atoms: _394  and  _395
REMARK  164  A    between atoms: _394  and  _397
REMARK  165  A    between atoms: _397  and  _398
REMARK  166  A    between atoms: _398  and  _399
REMARK  167  A    between atoms: _399  and  _400
REMARK  168  A    between atoms: _400  and  _401
REMARK  169  A    between atoms: _405  and  _407
REMARK  170  A    between atoms: _407  and  _408
REMARK  171  A    between atoms: _407  and  _410
REMARK  172  A    between atoms: _410  and  _411
REMARK  173  A    between atoms: _411  and  _412
REMARK  174  A    between atoms: _414  and  _416
REMARK  175  A    between atoms: _416  and  _417
REMARK  176  A    between atoms: _416  and  _419
REMARK  177  A    between atoms: _419  and  _420
REMARK  178  A    between atoms: _423  and  _425
REMARK  179  A    between atoms: _425  and  _426
REMARK  180  A    between atoms: _428  and  _430
REMARK  181  A    between atoms: _430  and  _431
REMARK  182  A    between atoms: _433  and  _435
REMARK  183  A    between atoms: _435  and  _436
REMARK  184  A    between atoms: _435  and  _438
REMARK  185  A    between atoms: _438  and  _439
REMARK  186  A    between atoms: _442  and  _444
REMARK  187  A    between atoms: _444  and  _445
REMARK  188  A    between atoms: _447  and  _449
REMARK  189  A    between atoms: _449  and  _450
REMARK  190  A    between atoms: _452  and  _454
REMARK  191  A    between atoms: _454  and  _455
REMARK  192  A    between atoms: _454  and  _457
REMARK  193  A    between atoms: _457  and  _458
REMARK  194  A    between atoms: _464  and  _466
REMARK  195  A    between atoms: _466  and  _467
REMARK  196  A    between atoms: _466  and  _469
REMARK  197  A    between atoms: _469  and  _470
REMARK  198  A    between atoms: _473  and  _475
REMARK  199  A    between atoms: _475  and  _476
REMARK  200  A    between atoms: _475  and  _478
REMARK  201  A    between atoms: _481  and  _483
REMARK  202  A    between atoms: _483  and  _484
REMARK  203  A    between atoms: _483  and  _486
REMARK  204  A    between atoms: _486  and  _487
REMARK  205  A    between atoms: _491  and  _492
REMARK  206  A    between atoms: _497  and  _499
REMARK  207  A    between atoms: _499  and  _500
REMARK  208  A    between atoms: _499  and  _502
REMARK  209  A    between atoms: _502  and  _503
REMARK  210  A    between atoms: _507  and  _508
REMARK  211  A    between atoms: _513  and  _515
REMARK  212  A    between atoms: _515  and  _516
REMARK  213  A    between atoms: _515  and  _518
REMARK  214  A    between atoms: _521  and  _523
REMARK  215  A    between atoms: _523  and  _524
REMARK  216  A    between atoms: _523  and  _526
REMARK  217  A    between atoms: _526  and  _527
REMARK  218  A    between atoms: _532  and  _534
REMARK  219  A    between atoms: _534  and  _535
REMARK  220  A    between atoms: _534  and  _537
REMARK  221  A    between atoms: _537  and  _538
REMARK  222  A    between atoms: _541  and  _543
REMARK  223  A    between atoms: _543  and  _544
REMARK  224  A    between atoms: _543  and  _546
REMARK  225  A    between atoms: _546  and  _547
REMARK  226  A    between atoms: _550  and  _552
REMARK  227  A    between atoms: _552  and  _553
REMARK  228  A    between atoms: _555  and  _557
REMARK  229  A    between atoms: _557  and  _558
REMARK  230  A    between atoms: _557  and  _560
REMARK  231  A    between atoms: _560  and  _561
REMARK  232  A    between atoms: _561  and  _562
REMARK  233  A    between atoms: _562  and  _563
REMARK  234  A    between atoms: _572  and  _574
REMARK  235  A    between atoms: _574  and  _575
REMARK  236  A    between atoms: _574  and  _577
REMARK  237  A    between atoms: _577  and  _578
REMARK                            x       y       z     vdW  Elec       q    Type
REMARK                         _______ _______ _______ _____ _____    ______ ____
ROOT
ATOM      1  O   HOH     1      19.374 -26.485 -26.962  0.00  0.00    +0.000 OA
ENDROOT
TORSDOF 0
REMARK  Name = ../refined-set-2016/2pwr/2pwr_pocket.pdb
REMARK  237 active torsions:
REMARK  status: ('A' for Active; 'I' for Inactive)
REMARK    1  A    between atoms: _1  and  _3
REMARK    2  A    between atoms: _3  and  _4
REMARK    3  A    between atoms: _3  and  _6
REMARK    4  A    between atoms: _6  and  _7
REMARK    5  A    between atoms: _7  and  _8
REMARK    6  A    between atoms: _8  and  _9
REMARK    7  A    between atoms: _18  and  _20
REMARK    8  A    between atoms: _20  and  _21
REMARK    9  A    between atoms: _20  and  _23
REMARK   10  A    between atoms: _23  and  _24
REMARK   11  A    between atoms: _27  and  _29
REMARK   12  A    between atoms: _29  and  _30
REMARK   13  A    between atoms: _29  and  _32
REMARK   14  A    between atoms: _32  and  _33
REMARK   15  A    between atoms: _36  and  _38
REMARK   16  A    between atoms: _38  and  _39
REMARK   17  A    between atoms: _38  and  _41
REMARK   18  A    between atoms: _41  and  _42
REMARK   19  A    between atoms: _45  and  _47
REMARK   20  A    between atoms: _47  and  _48
REMARK   21  A    between atoms: _47  and  _50
REMARK   22  A    between atoms: _50  and  _51
REMARK   23  A    between atoms: _54  and  _56
REMARK   24  A    between atoms: _56  and  _57
REMARK   25  A    between atoms: _59  and  _61
REMARK   26  A    between atoms: _61  and  _62
REMARK   27  A    between atoms: _65  and  _67
REMARK   28  A    between atoms: _67  and  _68
REMARK   29  A    between atoms: _67  and  _70
REMARK   30  A    between atoms: _70  and  _71
REMARK   31  A    between atoms: _74  and  _76
REMARK   32  A    between atoms: _76  and  _77
REMARK   33  A    between atoms: _76  and  _79
REMARK   34  A    between atoms: _79  and  _80
REMARK   35  A    between atoms: _83  and  _85
REMARK   36  A    between atoms: _85  and  _86
REMARK   37  A    between atoms: _85  and  _88
REMARK   38  A    between atoms: _88  and  _89
REMARK   39  A    between atoms: _92  and  _94
REMARK   40  A    between atoms: _94  and  _95
REMARK   41  A    between atoms: _94  and  _97
REMARK   42  A    between atoms: _100  and  _102
REMARK   43  A    between atoms: _102  and  _103
REMARK   44  A    between atoms: _102  and  _105
REMARK   45  A    between atoms: _105  and  _106
REMARK   46  A    between atoms: _106  and  _107
REMARK   47  A    between atoms: _107  and  _108
REMARK   48  A    between atoms: _108  and  _109
REMARK   49  A    between atoms: _113  and  _115
REMARK   50  A    between atoms: _115  and  _116
REMARK   51  A    between atoms: _115  and  _118
REMARK   52  A    between atoms: _118  and  _119
REMARK   53  A    between atoms: _119  and  _120
REMARK   54  A    between atoms: _122  and  _124
REMARK   55  A    between atoms: _124  and  _125
REMARK   56  A    between atoms: _124  and  _127
REMARK   57  A    between atoms: _127  and  _128
REMARK   58  A    between atoms: _131  and  _133
REMARK   59  A    between atoms: _133  and  _134
REMARK   60  A    between atoms: _136  and  _138
REMARK   61  A    between atoms: _138  and  _139
REMARK   62  A    between atoms: _141  and  _143
REMARK   63  A    between atoms: _143  and  _144
REMARK   64  A    between atoms: _143  and  _146
REMARK   65  A    between atoms: _146  and  _147
REMARK   66  A    between atoms: _150  and  _152
REMARK   67  A    between atoms: _152  and  _153
REMARK   68  A    between atoms: _155  and  _157
REMARK   69  A    between atoms: _157  and  _158
REMARK   70  A    between atoms: _160  and  _162
REMARK   71  A    between atoms: _162  and  _163
REMARK   72  A    between atoms: _162  and  _165
REMARK   73  A    between atoms: _165  and  _166
REMARK   74  A    between atoms: _172  and  _174
REMARK   75  A    between atoms: _174  and  _175
REMARK   76  A    between atoms: _174  and  _177
REMARK   77  A    between atoms: _177  and  _178
REMARK   78  A    between atoms: _181  and  _183
REMARK   79  A    between atoms: _183  and  _184
REMARK   80  A    between atoms: _183  and  _186
REMARK   81  A    between atoms: _189  and  _191
REMARK   82  A    between atoms: _191  and  _192
REMARK   83  A    between atoms: _191  and  _194
REMARK   84  A    between atoms: _194  and  _195
REMARK   85  A    between atoms: _198  and  _200
REMARK   86  A    between atoms: _200  and  _201
REMARK   87  A    between atoms: _200  and  _203
REMARK   88  A    between atoms: _203  and  _204
REMARK   89  A    between atoms: _208  and  _209
REMARK   90  A    between atoms: _214  and  _216
REMARK   91  A    between atoms: _216  and  _217
REMARK   92  A    between atoms: _216  and  _219
REMARK   93  A    between atoms: _222  and  _224
REMARK   94  A    between atoms: _224  and  _225
REMARK   95  A    between atoms: _224  and  _227
REMARK   96  A    between atoms: _227  and  _228
REMARK   97  A    between atoms: _233  and  _235
REMARK   98  A    between atoms: _235  and  _236
REMARK   99  A    between atoms: _235  and  _238
REMARK  100  A    between atoms: _238  and  _239
REMARK  101  A    between atoms: _242  and  _244
REMARK  102  A    between atoms: _244  and  _245
REMARK  103  A    between atoms: _244  and  _247
REMARK  104  A    between atoms: _247  and  _248
REMARK  105  A    between atoms: _251  and  _253
REMARK  106  A    between atoms: _253  and  _254
REMARK  107  A    between atoms: _256  and  _258
REMARK  108  A    between atoms: _258  and  _259
REMARK  109  A    between atoms: _258  and  _261
REMARK  110  A    between atoms: _261  and  _262
REMARK  111  A    between atoms: _262  and  _263
REMARK  112  A    between atoms: _263  and  _264
REMARK  113  A    between atoms: _273  and  _275
REMARK  114  A    between atoms: _275  and  _276
REMARK  115  A    between atoms: _275  and  _278
REMARK  116  A    between atoms: _278  and  _279
REMARK  117  A    between atoms: _284  and  _286
REMARK  118  A    between atoms: _286  and  _287
REMARK  119  A    between atoms: _286  and  _289
REMARK  120  A    between atoms: _289  and  _290
REMARK  121  A    between atoms: _290  and  _291
REMARK  122  A    between atoms: _291  and  _292
REMARK  123  A    between atoms: _301  and  _303
REMARK  124  A    between atoms: _303  and  _304
REMARK  125  A    between atoms: _303  and  _306
REMARK  126  A    between atoms: _306  and  _307
REMARK  127  A    between atoms: _310  and  _312
REMARK  128  A    between atoms: _312  and  _313
REMARK  129  A    between atoms: _312  and  _315
REMARK  130  A    between atoms: _315  and  _316
REMARK  131  A    between atoms: _319  and  _321
REMARK  132  A    between atoms: _321  and  _322
REMARK  133  A    between atoms: _321  and  _324
REMARK  134  A    between atoms: _324  and  _325
REMARK  135  A    between atoms: _328  and  _330
REMARK  136  A    between atoms: _330  and  _331
REMARK  137  A    between atoms: _330  and  _333
REMARK  138  A    between atoms: _333  and  _334
REMARK  139  A    between atoms: _337  and  _339
REMARK  140  A    between atoms: _339  and  _340
REMARK  141  A    between atoms: _339  and  _342
REMARK  142  A    between atoms: _342  and  _343
REMARK  143  A    between atoms: _346  and  _348
REMARK  144  A    between atoms: _348  and  _349
REMARK  145  A    between atoms: _351  and  _353
REMARK  146  A    between atoms: _353  and  _354
REMARK  147  A    between atoms: _357  and  _359
REMARK  148  A    between atoms: _359  and  _360
REMARK  149  A    between atoms: _359  and  _362
REMARK  150  A    between atoms: _362  and  _363
REMARK  151  A    between atoms: _366  and  _368
REMARK  152  A    between atoms: _368  and  _369
REMARK  153  A    between atoms: _368  and  _371
REMARK  154  A    between atoms: _371  and  _372
REMARK  155  A    between atoms: _375  and  _377
REMARK  156  A    between atoms: _377  and  _378
REMARK  157  A    between atoms: _377  and  _380
REMARK  158  A    between atoms: _380  and  _381
REMARK  159  A    between atoms: _384  and  _386
REMARK  160  A    between atoms: _386  and  _387
REMARK  161  A    between atoms: _386  and  _389
REMARK  162  A    between atoms: _392  and  _394
REMARK  163  A    between atoms: _394  and  _395
REMARK  164  A    between atoms: _394  and  _397
REMARK  165  A    between atoms: _397  and  _398
REMARK  166  A    between atoms: _398  and  _399
REMARK  167  A    between atoms: _399  and  _400
REMARK  168  A    between atoms: _400  and  _401
REMARK  169  A    between atoms: _405  and  _407
REMARK  170  A    between atoms: _407  and  _408
REMARK  171  A    between atoms: _407  and  _410
REMARK  172  A    between atoms: _410  and  _411
REMARK  173  A    between atoms: _411  and  _412
REMARK  174  A    between atoms: _414  and  _416
REMARK  175  A    between atoms: _416  and  _417
REMARK  176  A    between atoms: _416  and  _419
REMARK  177  A    between atoms: _419  and  _420
REMARK  178  A    between atoms: _423  and  _425
REMARK  179  A    between atoms: _425  and  _426
REMARK  180  A    between atoms: _428  and  _430
REMARK  181  A    between atoms: _430  and  _431
REMARK  182  A    between atoms: _433  and  _435
REMARK  183  A    between atoms: _435  and  _436
REMARK  184  A    between atoms: _435  and  _438
REMARK  185  A    between atoms: _438  and  _439
REMARK  186  A    between atoms: _442  and  _444
REMARK  187  A    between atoms: _444  and  _445
REMARK  188  A    between atoms: _447  and  _449
REMARK  189  A    between atoms: _449  and  _450
REMARK  190  A    between atoms: _452  and  _454
REMARK  191  A    between atoms: _454  and  _455
REMARK  192  A    between atoms: _454  and  _457
REMARK  193  A    between atoms: _457  and  _458
REMARK  194  A    between atoms: _464  and  _466
REMARK  195  A    between atoms: _466  and  _467
REMARK  196  A    between atoms: _466  and  _469
REMARK  197  A    between atoms: _469  and  _470
REMARK  198  A    between atoms: _473  and  _475
REMARK  199  A    between atoms: _475  and  _476
REMARK  200  A    between atoms: _475  and  _478
REMARK  201  A    between atoms: _481  and  _483
REMARK  202  A    between atoms: _483  and  _484
REMARK  203  A    between atoms: _483  and  _486
REMARK  204  A    between atoms: _486  and  _487
REMARK  205  A    between atoms: _491  and  _492
REMARK  206  A    between atoms: _497  and  _499
REMARK  207  A    between atoms: _499  and  _500
REMARK  208  A    between atoms: _499  and  _502
REMARK  209  A    between atoms: _502  and  _503
REMARK  210  A    between atoms: _507  and  _508
REMARK  211  A    between atoms: _513  and  _515
REMARK  212  A    between atoms: _515  and  _516
REMARK  213  A    between atoms: _515  and  _518
REMARK  214  A    between atoms: _521  and  _523
REMARK  215  A    between atoms: _523  and  _524
REMARK  216  A    between atoms: _523  and  _526
REMARK  217  A    between atoms: _526  and  _527
REMARK  218  A    between atoms: _532  and  _534
REMARK  219  A    between atoms: _534  and  _535
REMARK  220  A    between atoms: _534  and  _537
REMARK  221  A    between atoms: _537  and  _538
REMARK  222  A    between atoms: _541  and  _543
REMARK  223  A    between atoms: _543  and  _544
REMARK  224  A    between atoms: _543  and  _546
REMARK  225  A    between atoms: _546  and  _547
REMARK  226  A    between atoms: _550  and  _552
REMARK  227  A    between atoms: _552  and  _553
REMARK  228  A    between atoms: _555  and  _557
REMARK  229  A    between atoms: _557  and  _558
REMARK  230  A    between atoms: _557  and  _560
REMARK  231  A    between atoms: _560  and  _561
REMARK  232  A    between atoms: _561  and  _562
REMARK  233  A    between atoms: _562  and  _563
REMARK  234  A    between atoms: _572  and  _574
REMARK  235  A    between atoms: _574  and  _575
REMARK  236  A    between atoms: _574  and  _577
REMARK  237  A    between atoms: _577  and  _578
REMARK                            x       y       z     vdW  Elec       q    Type
REMARK                         _______ _______ _______ _____ _____    ______ ____
ROOT
ATOM      1  O   HOH     1      18.162 -22.710 -17.909  0.00  0.00    +0.000 OA
ENDROOT
TORSDOF 0
REMARK  Name = ../refined-set-2016/2pwr/2pwr_pocket.pdb
REMARK  237 active torsions:
REMARK  status: ('A' for Active; 'I' for Inactive)
REMARK    1  A    between atoms: _1  and  _3
REMARK    2  A    between atoms: _3  and  _4
REMARK    3  A    between atoms: _3  and  _6
REMARK    4  A    between atoms: _6  and  _7
REMARK    5  A    between atoms: _7  and  _8
REMARK    6  A    between atoms: _8  and  _9
REMARK    7  A    between atoms: _18  and  _20
REMARK    8  A    between atoms: _20  and  _21
REMARK    9  A    between atoms: _20  and  _23
REMARK   10  A    between atoms: _23  and  _24
REMARK   11  A    between atoms: _27  and  _29
REMARK   12  A    between atoms: _29  and  _30
REMARK   13  A    between atoms: _29  and  _32
REMARK   14  A    between atoms: _32  and  _33
REMARK   15  A    between atoms: _36  and  _38
REMARK   16  A    between atoms: _38  and  _39
REMARK   17  A    between atoms: _38  and  _41
REMARK   18  A    between atoms: _41  and  _42
REMARK   19  A    between atoms: _45  and  _47
REMARK   20  A    between atoms: _47  and  _48
REMARK   21  A    between atoms: _47  and  _50
REMARK   22  A    between atoms: _50  and  _51
REMARK   23  A    between atoms: _54  and  _56
REMARK   24  A    between atoms: _56  and  _57
REMARK   25  A    between atoms: _59  and  _61
REMARK   26  A    between atoms: _61  and  _62
REMARK   27  A    between atoms: _65  and  _67
REMARK   28  A    between atoms: _67  and  _68
REMARK   29  A    between atoms: _67  and  _70
REMARK   30  A    between atoms: _70  and  _71
REMARK   31  A    between atoms: _74  and  _76
REMARK   32  A    between atoms: _76  and  _77
REMARK   33  A    between atoms: _76  and  _79
REMARK   34  A    between atoms: _79  and  _80
REMARK   35  A    between atoms: _83  and  _85
REMARK   36  A    between atoms: _85  and  _86
REMARK   37  A    between atoms: _85  and  _88
REMARK   38  A    between atoms: _88  and  _89
REMARK   39  A    between atoms: _92  and  _94
REMARK   40  A    between atoms: _94  and  _95
REMARK   41  A    between atoms: _94  and  _97
REMARK   42  A    between atoms: _100  and  _102
REMARK   43  A    between atoms: _102  and  _103
REMARK   44  A    between atoms: _102  and  _105
REMARK   45  A    between atoms: _105  and  _106
REMARK   46  A    between atoms: _106  and  _107
REMARK   47  A    between atoms: _107  and  _108
REMARK   48  A    between atoms: _108  and  _109
REMARK   49  A    between atoms: _113  and  _115
REMARK   50  A    between atoms: _115  and  _116
REMARK   51  A    between atoms: _115  and  _118
REMARK   52  A    between atoms: _118  and  _119
REMARK   53  A    between atoms: _119  and  _120
REMARK   54  A    between atoms: _122  and  _124
REMARK   55  A    between atoms: _124  and  _125
REMARK   56  A    between atoms: _124  and  _127
REMARK   57  A    between atoms: _127  and  _128
REMARK   58  A    between atoms: _131  and  _133
REMARK   59  A    between atoms: _133  and  _134
REMARK   60  A    between atoms: _136  and  _138
REMARK   61  A    between atoms: _138  and  _139
REMARK   62  A    between atoms: _141  and  _143
REMARK   63  A    between atoms: _143  and  _144
REMARK   64  A    between atoms: _143  and  _146
REMARK   65  A    between atoms: _146  and  _147
REMARK   66  A    between atoms: _150  and  _152
REMARK   67  A    between atoms: _152  and  _153
REMARK   68  A    between atoms: _155  and  _157
REMARK   69  A    between atoms: _157  and  _158
REMARK   70  A    between atoms: _160  and  _162
REMARK   71  A    between atoms: _162  and  _163
REMARK   72  A    between atoms: _162  and  _165
REMARK   73  A    between atoms: _165  and  _166
REMARK   74  A    between atoms: _172  and  _174
REMARK   75  A    between atoms: _174  and  _175
REMARK   76  A    between atoms: _174  and  _177
REMARK   77  A    between atoms: _177  and  _178
REMARK   78  A    between atoms: _181  and  _183
REMARK   79  A    between atoms: _183  and  _184
REMARK   80  A    between atoms: _183  and  _186
REMARK   81  A    between atoms: _189  and  _191
REMARK   82  A    between atoms: _191  and  _192
REMARK   83  A    between atoms: _191  and  _194
REMARK   84  A    between atoms: _194  and  _195
REMARK   85  A    between atoms: _198  and  _200
REMARK   86  A    between atoms: _200  and  _201
REMARK   87  A    between atoms: _200  and  _203
REMARK   88  A    between atoms: _203  and  _204
REMARK   89  A    between atoms: _208  and  _209
REMARK   90  A    between atoms: _214  and  _216
REMARK   91  A    between atoms: _216  and  _217
REMARK   92  A    between atoms: _216  and  _219
REMARK   93  A    between atoms: _222  and  _224
REMARK   94  A    between atoms: _224  and  _225
REMARK   95  A    between atoms: _224  and  _227
REMARK   96  A    between atoms: _227  and  _228
REMARK   97  A    between atoms: _233  and  _235
REMARK   98  A    between atoms: _235  and  _236
REMARK   99  A    between atoms: _235  and  _238
REMARK  100  A    between atoms: _238  and  _239
REMARK  101  A    between atoms: _242  and  _244
REMARK  102  A    between atoms: _244  and  _245
REMARK  103  A    between atoms: _244  and  _247
REMARK  104  A    between atoms: _247  and  _248
REMARK  105  A    between atoms: _251  and  _253
REMARK  106  A    between atoms: _253  and  _254
REMARK  107  A    between atoms: _256  and  _258
REMARK  108  A    between atoms: _258  and  _259
REMARK  109  A    between atoms: _258  and  _261
REMARK  110  A    between atoms: _261  and  _262
REMARK  111  A    between atoms: _262  and  _263
REMARK  112  A    between atoms: _263  and  _264
REMARK  113  A    between atoms: _273  and  _275
REMARK  114  A    between atoms: _275  and  _276
REMARK  115  A    between atoms: _275  and  _278
REMARK  116  A    between atoms: _278  and  _279
REMARK  117  A    between atoms: _284  and  _286
REMARK  118  A    between atoms: _286  and  _287
REMARK  119  A    between atoms: _286  and  _289
REMARK  120  A    between atoms: _289  and  _290
REMARK  121  A    between atoms: _290  and  _291
REMARK  122  A    between atoms: _291  and  _292
REMARK  123  A    between atoms: _301  and  _303
REMARK  124  A    between atoms: _303  and  _304
REMARK  125  A    between atoms: _303  and  _306
REMARK  126  A    between atoms: _306  and  _307
REMARK  127  A    between atoms: _310  and  _312
REMARK  128  A    between atoms: _312  and  _313
REMARK  129  A    between atoms: _312  and  _315
REMARK  130  A    between atoms: _315  and  _316
REMARK  131  A    between atoms: _319  and  _321
REMARK  132  A    between atoms: _321  and  _322
REMARK  133  A    between atoms: _321  and  _324
REMARK  134  A    between atoms: _324  and  _325
REMARK  135  A    between atoms: _328  and  _330
REMARK  136  A    between atoms: _330  and  _331
REMARK  137  A    between atoms: _330  and  _333
REMARK  138  A    between atoms: _333  and  _334
REMARK  139  A    between atoms: _337  and  _339
REMARK  140  A    between atoms: _339  and  _340
REMARK  141  A    between atoms: _339  and  _342
REMARK  142  A    between atoms: _342  and  _343
REMARK  143  A    between atoms: _346  and  _348
REMARK  144  A    between atoms: _348  and  _349
REMARK  145  A    between atoms: _351  and  _353
REMARK  146  A    between atoms: _353  and  _354
REMARK  147  A    between atoms: _357  and  _359
REMARK  148  A    between atoms: _359  and  _360
REMARK  149  A    between atoms: _359  and  _362
REMARK  150  A    between atoms: _362  and  _363
REMARK  151  A    between atoms: _366  and  _368
REMARK  152  A    between atoms: _368  and  _369
REMARK  153  A    between atoms: _368  and  _371
REMARK  154  A    between atoms: _371  and  _372
REMARK  155  A    between atoms: _375  and  _377
REMARK  156  A    between atoms: _377  and  _378
REMARK  157  A    between atoms: _377  and  _380
REMARK  158  A    between atoms: _380  and  _381
REMARK  159  A    between atoms: _384  and  _386
REMARK  160  A    between atoms: _386  and  _387
REMARK  161  A    between atoms: _386  and  _389
REMARK  162  A    between atoms: _392  and  _394
REMARK  163  A    between atoms: _394  and  _395
REMARK  164  A    between atoms: _394  and  _397
REMARK  165  A    between atoms: _397  and  _398
REMARK  166  A    between atoms: _398  and  _399
REMARK  167  A    between atoms: _399  and  _400
REMARK  168  A    between atoms: _400  and  _401
REMARK  169  A    between atoms: _405  and  _407
REMARK  170  A    between atoms: _407  and  _408
REMARK  171  A    between atoms: _407  and  _410
REMARK  172  A    between atoms: _410  and  _411
REMARK  173  A    between atoms: _411  and  _412
REMARK  174  A    between atoms: _414  and  _416
REMARK  175  A    between atoms: _416  and  _417
REMARK  176  A    between atoms: _416  and  _419
REMARK  177  A    between atoms: _419  and  _420
REMARK  178  A    between atoms: _423  and  _425
REMARK  179  A    between atoms: _425  and  _426
REMARK  180  A    between atoms: _428  and  _430
REMARK  181  A    between atoms: _430  and  _431
REMARK  182  A    between atoms: _433  and  _435
REMARK  183  A    between atoms: _435  and  _436
REMARK  184  A    between atoms: _435  and  _438
REMARK  185  A    between atoms: _438  and  _439
REMARK  186  A    between atoms: _442  and  _444
REMARK  187  A    between atoms: _444  and  _445
REMARK  188  A    between atoms: _447  and  _449
REMARK  189  A    between atoms: _449  and  _450
REMARK  190  A    between atoms: _452  and  _454
REMARK  191  A    between atoms: _454  and  _455
REMARK  192  A    between atoms: _454  and  _457
REMARK  193  A    between atoms: _457  and  _458
REMARK  194  A    between atoms: _464  and  _466
REMARK  195  A    between atoms: _466  and  _467
REMARK  196  A    between atoms: _466  and  _469
REMARK  197  A    between atoms: _469  and  _470
REMARK  198  A    between atoms: _473  and  _475
REMARK  199  A    between atoms: _475  and  _476
REMARK  200  A    between atoms: _475  and  _478
REMARK  201  A    between atoms: _481  and  _483
REMARK  202  A    between atoms: _483  and  _484
REMARK  203  A    between atoms: _483  and  _486
REMARK  204  A    between atoms: _486  and  _487
REMARK  205  A    between atoms: _491  and  _492
REMARK  206  A    between atoms: _497  and  _499
REMARK  207  A    between atoms: _499  and  _500
REMARK  208  A    between atoms: _499  and  _502
REMARK  209  A    between atoms: _502  and  _503
REMARK  210  A    between atoms: _507  and  _508
REMARK  211  A    between atoms: _513  and  _515
REMARK  212  A    between atoms: _515  and  _516
REMARK  213  A    between atoms: _515  and  _518
REMARK  214  A    between atoms: _521  and  _523
REMARK  215  A    between atoms: _523  and  _524
REMARK  216  A    between atoms: _523  and  _526
REMARK  217  A    between atoms: _526  and  _527
REMARK  218  A    between atoms: _532  and  _534
REMARK  219  A    between atoms: _534  and  _535
REMARK  220  A    between atoms: _534  and  _537
REMARK  221  A    between atoms: _537  and  _538
REMARK  222  A    between atoms: _541  and  _543
REMARK  223  A    between atoms: _543  and  _544
REMARK  224  A    between atoms: _543  and  _546
REMARK  225  A    between atoms: _546  and  _547
REMARK  226  A    between atoms: _550  and  _552
REMARK  227  A    between atoms: _552  and  _553
REMARK  228  A    between atoms: _555  and  _557
REMARK  229  A    between atoms: _557  and  _558
REMARK  230  A    between atoms: _557  and  _560
REMARK  231  A    between atoms: _560  and  _561
REMARK  232  A    between atoms: _561  and  _562
REMARK  233  A    between atoms: _562  and  _563
REMARK  234  A    between atoms: _572  and  _574
REMARK  235  A    between atoms: _574  and  _575
REMARK  236  A    between atoms: _574  and  _577
REMARK  237  A    between atoms: _577  and  _578
REMARK                            x       y       z     vdW  Elec       q    Type
REMARK                         _______ _______ _______ _____ _____    ______ ____
ROOT
ATOM      1  O   HOH     1       5.286 -14.927 -25.863  0.00  0.00    +0.000 OA
ENDROOT
TORSDOF 0
REMARK  Name = ../refined-set-2016/2pwr/2pwr_pocket.pdb
REMARK  237 active torsions:
REMARK  status: ('A' for Active; 'I' for Inactive)
REMARK    1  A    between atoms: _1  and  _3
REMARK    2  A    between atoms: _3  and  _4
REMARK    3  A    between atoms: _3  and  _6
REMARK    4  A    between atoms: _6  and  _7
REMARK    5  A    between atoms: _7  and  _8
REMARK    6  A    between atoms: _8  and  _9
REMARK    7  A    between atoms: _18  and  _20
REMARK    8  A    between atoms: _20  and  _21
REMARK    9  A    between atoms: _20  and  _23
REMARK   10  A    between atoms: _23  and  _24
REMARK   11  A    between atoms: _27  and  _29
REMARK   12  A    between atoms: _29  and  _30
REMARK   13  A    between atoms: _29  and  _32
REMARK   14  A    between atoms: _32  and  _33
REMARK   15  A    between atoms: _36  and  _38
REMARK   16  A    between atoms: _38  and  _39
REMARK   17  A    between atoms: _38  and  _41
REMARK   18  A    between atoms: _41  and  _42
REMARK   19  A    between atoms: _45  and  _47
REMARK   20  A    between atoms: _47  and  _48
REMARK   21  A    between atoms: _47  and  _50
REMARK   22  A    between atoms: _50  and  _51
REMARK   23  A    between atoms: _54  and  _56
REMARK   24  A    between atoms: _56  and  _57
REMARK   25  A    between atoms: _59  and  _61
REMARK   26  A    between atoms: _61  and  _62
REMARK   27  A    between atoms: _65  and  _67
REMARK   28  A    between atoms: _67  and  _68
REMARK   29  A    between atoms: _67  and  _70
REMARK   30  A    between atoms: _70  and  _71
REMARK   31  A    between atoms: _74  and  _76
REMARK   32  A    between atoms: _76  and  _77
REMARK   33  A    between atoms: _76  and  _79
REMARK   34  A    between atoms: _79  and  _80
REMARK   35  A    between atoms: _83  and  _85
REMARK   36  A    between atoms: _85  and  _86
REMARK   37  A    between atoms: _85  and  _88
REMARK   38  A    between atoms: _88  and  _89
REMARK   39  A    between atoms: _92  and  _94
REMARK   40  A    between atoms: _94  and  _95
REMARK   41  A    between atoms: _94  and  _97
REMARK   42  A    between atoms: _100  and  _102
REMARK   43  A    between atoms: _102  and  _103
REMARK   44  A    between atoms: _102  and  _105
REMARK   45  A    between atoms: _105  and  _106
REMARK   46  A    between atoms: _106  and  _107
REMARK   47  A    between atoms: _107  and  _108
REMARK   48  A    between atoms: _108  and  _109
REMARK   49  A    between atoms: _113  and  _115
REMARK   50  A    between atoms: _115  and  _116
REMARK   51  A    between atoms: _115  and  _118
REMARK   52  A    between atoms: _118  and  _119
REMARK   53  A    between atoms: _119  and  _120
REMARK   54  A    between atoms: _122  and  _124
REMARK   55  A    between atoms: _124  and  _125
REMARK   56  A    between atoms: _124  and  _127
REMARK   57  A    between atoms: _127  and  _128
REMARK   58  A    between atoms: _131  and  _133
REMARK   59  A    between atoms: _133  and  _134
REMARK   60  A    between atoms: _136  and  _138
REMARK   61  A    between atoms: _138  and  _139
REMARK   62  A    between atoms: _141  and  _143
REMARK   63  A    between atoms: _143  and  _144
REMARK   64  A    between atoms: _143  and  _146
REMARK   65  A    between atoms: _146  and  _147
REMARK   66  A    between atoms: _150  and  _152
REMARK   67  A    between atoms: _152  and  _153
REMARK   68  A    between atoms: _155  and  _157
REMARK   69  A    between atoms: _157  and  _158
REMARK   70  A    between atoms: _160  and  _162
REMARK   71  A    between atoms: _162  and  _163
REMARK   72  A    between atoms: _162  and  _165
REMARK   73  A    between atoms: _165  and  _166
REMARK   74  A    between atoms: _172  and  _174
REMARK   75  A    between atoms: _174  and  _175
REMARK   76  A    between atoms: _174  and  _177
REMARK   77  A    between atoms: _177  and  _178
REMARK   78  A    between atoms: _181  and  _183
REMARK   79  A    between atoms: _183  and  _184
REMARK   80  A    between atoms: _183  and  _186
REMARK   81  A    between atoms: _189  and  _191
REMARK   82  A    between atoms: _191  and  _192
REMARK   83  A    between atoms: _191  and  _194
REMARK   84  A    between atoms: _194  and  _195
REMARK   85  A    between atoms: _198  and  _200
REMARK   86  A    between atoms: _200  and  _201
REMARK   87  A    between atoms: _200  and  _203
REMARK   88  A    between atoms: _203  and  _204
REMARK   89  A    between atoms: _208  and  _209
REMARK   90  A    between atoms: _214  and  _216
REMARK   91  A    between atoms: _216  and  _217
REMARK   92  A    between atoms: _216  and  _219
REMARK   93  A    between atoms: _222  and  _224
REMARK   94  A    between atoms: _224  and  _225
REMARK   95  A    between atoms: _224  and  _227
REMARK   96  A    between atoms: _227  and  _228
REMARK   97  A    between atoms: _233  and  _235
REMARK   98  A    between atoms: _235  and  _236
REMARK   99  A    between atoms: _235  and  _238
REMARK  100  A    between atoms: _238  and  _239
REMARK  101  A    between atoms: _242  and  _244
REMARK  102  A    between atoms: _244  and  _245
REMARK  103  A    between atoms: _244  and  _247
REMARK  104  A    between atoms: _247  and  _248
REMARK  105  A    between atoms: _251  and  _253
REMARK  106  A    between atoms: _253  and  _254
REMARK  107  A    between atoms: _256  and  _258
REMARK  108  A    between atoms: _258  and  _259
REMARK  109  A    between atoms: _258  and  _261
REMARK  110  A    between atoms: _261  and  _262
REMARK  111  A    between atoms: _262  and  _263
REMARK  112  A    between atoms: _263  and  _264
REMARK  113  A    between atoms: _273  and  _275
REMARK  114  A    between atoms: _275  and  _276
REMARK  115  A    between atoms: _275  and  _278
REMARK  116  A    between atoms: _278  and  _279
REMARK  117  A    between atoms: _284  and  _286
REMARK  118  A    between atoms: _286  and  _287
REMARK  119  A    between atoms: _286  and  _289
REMARK  120  A    between atoms: _289  and  _290
REMARK  121  A    between atoms: _290  and  _291
REMARK  122  A    between atoms: _291  and  _292
REMARK  123  A    between atoms: _301  and  _303
REMARK  124  A    between atoms: _303  and  _304
REMARK  125  A    between atoms: _303  and  _306
REMARK  126  A    between atoms: _306  and  _307
REMARK  127  A    between atoms: _310  and  _312
REMARK  128  A    between atoms: _312  and  _313
REMARK  129  A    between atoms: _312  and  _315
REMARK  130  A    between atoms: _315  and  _316
REMARK  131  A    between atoms: _319  and  _321
REMARK  132  A    between atoms: _321  and  _322
REMARK  133  A    between atoms: _321  and  _324
REMARK  134  A    between atoms: _324  and  _325
REMARK  135  A    between atoms: _328  and  _330
REMARK  136  A    between atoms: _330  and  _331
REMARK  137  A    between atoms: _330  and  _333
REMARK  138  A    between atoms: _333  and  _334
REMARK  139  A    between atoms: _337  and  _339
REMARK  140  A    between atoms: _339  and  _340
REMARK  141  A    between atoms: _339  and  _342
REMARK  142  A    between atoms: _342  and  _343
REMARK  143  A    between atoms: _346  and  _348
REMARK  144  A    between atoms: _348  and  _349
REMARK  145  A    between atoms: _351  and  _353
REMARK  146  A    between atoms: _353  and  _354
REMARK  147  A    between atoms: _357  and  _359
REMARK  148  A    between atoms: _359  and  _360
REMARK  149  A    between atoms: _359  and  _362
REMARK  150  A    between atoms: _362  and  _363
REMARK  151  A    between atoms: _366  and  _368
REMARK  152  A    between atoms: _368  and  _369
REMARK  153  A    between atoms: _368  and  _371
REMARK  154  A    between atoms: _371  and  _372
REMARK  155  A    between atoms: _375  and  _377
REMARK  156  A    between atoms: _377  and  _378
REMARK  157  A    between atoms: _377  and  _380
REMARK  158  A    between atoms: _380  and  _381
REMARK  159  A    between atoms: _384  and  _386
REMARK  160  A    between atoms: _386  and  _387
REMARK  161  A    between atoms: _386  and  _389
REMARK  162  A    between atoms: _392  and  _394
REMARK  163  A    between atoms: _394  and  _395
REMARK  164  A    between atoms: _394  and  _397
REMARK  165  A    between atoms: _397  and  _398
REMARK  166  A    between atoms: _398  and  _399
REMARK  167  A    between atoms: _399  and  _400
REMARK  168  A    between atoms: _400  and  _401
REMARK  169  A    between atoms: _405  and  _407
REMARK  170  A    between atoms: _407  and  _408
REMARK  171  A    between atoms: _407  and  _410
REMARK  172  A    between atoms: _410  and  _411
REMARK  173  A    between atoms: _411  and  _412
REMARK  174  A    between atoms: _414  and  _416
REMARK  175  A    between atoms: _416  and  _417
REMARK  176  A    between atoms: _416  and  _419
REMARK  177  A    between atoms: _419  and  _420
REMARK  178  A    between atoms: _423  and  _425
REMARK  179  A    between atoms: _425  and  _426
REMARK  180  A    between atoms: _428  and  _430
REMARK  181  A    between atoms: _430  and  _431
REMARK  182  A    between atoms: _433  and  _435
REMARK  183  A    between atoms: _435  and  _436
REMARK  184  A    between atoms: _435  and  _438
REMARK  185  A    between atoms: _438  and  _439
REMARK  186  A    between atoms: _442  and  _444
REMARK  187  A    between atoms: _444  and  _445
REMARK  188  A    between atoms: _447  and  _449
REMARK  189  A    between atoms: _449  and  _450
REMARK  190  A    between atoms: _452  and  _454
REMARK  191  A    between atoms: _454  and  _455
REMARK  192  A    between atoms: _454  and  _457
REMARK  193  A    between atoms: _457  and  _458
REMARK  194  A    between atoms: _464  and  _466
REMARK  195  A    between atoms: _466  and  _467
REMARK  196  A    between atoms: _466  and  _469
REMARK  197  A    between atoms: _469  and  _470
REMARK  198  A    between atoms: _473  and  _475
REMARK  199  A    between atoms: _475  and  _476
REMARK  200  A    between atoms: _475  and  _478
REMARK  201  A    between atoms: _481  and  _483
REMARK  202  A    between atoms: _483  and  _484
REMARK  203  A    between atoms: _483  and  _486
REMARK  204  A    between atoms: _486  and  _487
REMARK  205  A    between atoms: _491  and  _492
REMARK  206  A    between atoms: _497  and  _499
REMARK  207  A    between atoms: _499  and  _500
REMARK  208  A    between atoms: _499  and  _502
REMARK  209  A    between atoms: _502  and  _503
REMARK  210  A    between atoms: _507  and  _508
REMARK  211  A    between atoms: _513  and  _515
REMARK  212  A    between atoms: _515  and  _516
REMARK  213  A    between atoms: _515  and  _518
REMARK  214  A    between atoms: _521  and  _523
REMARK  215  A    between atoms: _523  and  _524
REMARK  216  A    between atoms: _523  and  _526
REMARK  217  A    between atoms: _526  and  _527
REMARK  218  A    between atoms: _532  and  _534
REMARK  219  A    between atoms: _534  and  _535
REMARK  220  A    between atoms: _534  and  _537
REMARK  221  A    between atoms: _537  and  _538
REMARK  222  A    between atoms: _541  and  _543
REMARK  223  A    between atoms: _543  and  _544
REMARK  224  A    between atoms: _543  and  _546
REMARK  225  A    between atoms: _546  and  _547
REMARK  226  A    between atoms: _550  and  _552
REMARK  227  A    between atoms: _552  and  _553
REMARK  228  A    between atoms: _555  and  _557
REMARK  229  A    between atoms: _557  and  _558
REMARK  230  A    between atoms: _557  and  _560
REMARK  231  A    between atoms: _560  and  _561
REMARK  232  A    between atoms: _561  and  _562
REMARK  233  A    between atoms: _562  and  _563
REMARK  234  A    between atoms: _572  and  _574
REMARK  235  A    between atoms: _574  and  _575
REMARK  236  A    between atoms: _574  and  _577
REMARK  237  A    between atoms: _577  and  _578
REMARK                            x       y       z     vdW  Elec       q    Type
REMARK                         _______ _______ _______ _____ _____    ______ ____
ROOT
ATOM      1  O   HOH     1      13.810 -27.126 -12.122  0.00  0.00    +0.000 OA
ENDROOT
TORSDOF 0
REMARK  Name = ../refined-set-2016/2pwr/2pwr_pocket.pdb
REMARK  237 active torsions:
REMARK  status: ('A' for Active; 'I' for Inactive)
REMARK    1  A    between atoms: _1  and  _3
REMARK    2  A    between atoms: _3  and  _4
REMARK    3  A    between atoms: _3  and  _6
REMARK    4  A    between atoms: _6  and  _7
REMARK    5  A    between atoms: _7  and  _8
REMARK    6  A    between atoms: _8  and  _9
REMARK    7  A    between atoms: _18  and  _20
REMARK    8  A    between atoms: _20  and  _21
REMARK    9  A    between atoms: _20  and  _23
REMARK   10  A    between atoms: _23  and  _24
REMARK   11  A    between atoms: _27  and  _29
REMARK   12  A    between atoms: _29  and  _30
REMARK   13  A    between atoms: _29  and  _32
REMARK   14  A    between atoms: _32  and  _33
REMARK   15  A    between atoms: _36  and  _38
REMARK   16  A    between atoms: _38  and  _39
REMARK   17  A    between atoms: _38  and  _41
REMARK   18  A    between atoms: _41  and  _42
REMARK   19  A    between atoms: _45  and  _47
REMARK   20  A    between atoms: _47  and  _48
REMARK   21  A    between atoms: _47  and  _50
REMARK   22  A    between atoms: _50  and  _51
REMARK   23  A    between atoms: _54  and  _56
REMARK   24  A    between atoms: _56  and  _57
REMARK   25  A    between atoms: _59  and  _61
REMARK   26  A    between atoms: _61  and  _62
REMARK   27  A    between atoms: _65  and  _67
REMARK   28  A    between atoms: _67  and  _68
REMARK   29  A    between atoms: _67  and  _70
REMARK   30  A    between atoms: _70  and  _71
REMARK   31  A    between atoms: _74  and  _76
REMARK   32  A    between atoms: _76  and  _77
REMARK   33  A    between atoms: _76  and  _79
REMARK   34  A    between atoms: _79  and  _80
REMARK   35  A    between atoms: _83  and  _85
REMARK   36  A    between atoms: _85  and  _86
REMARK   37  A    between atoms: _85  and  _88
REMARK   38  A    between atoms: _88  and  _89
REMARK   39  A    between atoms: _92  and  _94
REMARK   40  A    between atoms: _94  and  _95
REMARK   41  A    between atoms: _94  and  _97
REMARK   42  A    between atoms: _100  and  _102
REMARK   43  A    between atoms: _102  and  _103
REMARK   44  A    between atoms: _102  and  _105
REMARK   45  A    between atoms: _105  and  _106
REMARK   46  A    between atoms: _106  and  _107
REMARK   47  A    between atoms: _107  and  _108
REMARK   48  A    between atoms: _108  and  _109
REMARK   49  A    between atoms: _113  and  _115
REMARK   50  A    between atoms: _115  and  _116
REMARK   51  A    between atoms: _115  and  _118
REMARK   52  A    between atoms: _118  and  _119
REMARK   53  A    between atoms: _119  and  _120
REMARK   54  A    between atoms: _122  and  _124
REMARK   55  A    between atoms: _124  and  _125
REMARK   56  A    between atoms: _124  and  _127
REMARK   57  A    between atoms: _127  and  _128
REMARK   58  A    between atoms: _131  and  _133
REMARK   59  A    between atoms: _133  and  _134
REMARK   60  A    between atoms: _136  and  _138
REMARK   61  A    between atoms: _138  and  _139
REMARK   62  A    between atoms: _141  and  _143
REMARK   63  A    between atoms: _143  and  _144
REMARK   64  A    between atoms: _143  and  _146
REMARK   65  A    between atoms: _146  and  _147
REMARK   66  A    between atoms: _150  and  _152
REMARK   67  A    between atoms: _152  and  _153
REMARK   68  A    between atoms: _155  and  _157
REMARK   69  A    between atoms: _157  and  _158
REMARK   70  A    between atoms: _160  and  _162
REMARK   71  A    between atoms: _162  and  _163
REMARK   72  A    between atoms: _162  and  _165
REMARK   73  A    between atoms: _165  and  _166
REMARK   74  A    between atoms: _172  and  _174
REMARK   75  A    between atoms: _174  and  _175
REMARK   76  A    between atoms: _174  and  _177
REMARK   77  A    between atoms: _177  and  _178
REMARK   78  A    between atoms: _181  and  _183
REMARK   79  A    between atoms: _183  and  _184
REMARK   80  A    between atoms: _183  and  _186
REMARK   81  A    between atoms: _189  and  _191
REMARK   82  A    between atoms: _191  and  _192
REMARK   83  A    between atoms: _191  and  _194
REMARK   84  A    between atoms: _194  and  _195
REMARK   85  A    between atoms: _198  and  _200
REMARK   86  A    between atoms: _200  and  _201
REMARK   87  A    between atoms: _200  and  _203
REMARK   88  A    between atoms: _203  and  _204
REMARK   89  A    between atoms: _208  and  _209
REMARK   90  A    between atoms: _214  and  _216
REMARK   91  A    between atoms: _216  and  _217
REMARK   92  A    between atoms: _216  and  _219
REMARK   93  A    between atoms: _222  and  _224
REMARK   94  A    between atoms: _224  and  _225
REMARK   95  A    between atoms: _224  and  _227
REMARK   96  A    between atoms: _227  and  _228
REMARK   97  A    between atoms: _233  and  _235
REMARK   98  A    between atoms: _235  and  _236
REMARK   99  A    between atoms: _235  and  _238
REMARK  100  A    between atoms: _238  and  _239
REMARK  101  A    between atoms: _242  and  _244
REMARK  102  A    between atoms: _244  and  _245
REMARK  103  A    between atoms: _244  and  _247
REMARK  104  A    between atoms: _247  and  _248
REMARK  105  A    between atoms: _251  and  _253
REMARK  106  A    between atoms: _253  and  _254
REMARK  107  A    between atoms: _256  and  _258
REMARK  108  A    between atoms: _258  and  _259
REMARK  109  A    between atoms: _258  and  _261
REMARK  110  A    between atoms: _261  and  _262
REMARK  111  A    between atoms: _262  and  _263
REMARK  112  A    between atoms: _263  and  _264
REMARK  113  A    between atoms: _273  and  _275
REMARK  114  A    between atoms: _275  and  _276
REMARK  115  A    between atoms: _275  and  _278
REMARK  116  A    between atoms: _278  and  _279
REMARK  117  A    between atoms: _284  and  _286
REMARK  118  A    between atoms: _286  and  _287
REMARK  119  A    between atoms: _286  and  _289
REMARK  120  A    between atoms: _289  and  _290
REMARK  121  A    between atoms: _290  and  _291
REMARK  122  A    between atoms: _291  and  _292
REMARK  123  A    between atoms: _301  and  _303
REMARK  124  A    between atoms: _303  and  _304
REMARK  125  A    between atoms: _303  and  _306
REMARK  126  A    between atoms: _306  and  _307
REMARK  127  A    between atoms: _310  and  _312
REMARK  128  A    between atoms: _312  and  _313
REMARK  129  A    between atoms: _312  and  _315
REMARK  130  A    between atoms: _315  and  _316
REMARK  131  A    between atoms: _319  and  _321
REMARK  132  A    between atoms: _321  and  _322
REMARK  133  A    between atoms: _321  and  _324
REMARK  134  A    between atoms: _324  and  _325
REMARK  135  A    between atoms: _328  and  _330
REMARK  136  A    between atoms: _330  and  _331
REMARK  137  A    between atoms: _330  and  _333
REMARK  138  A    between atoms: _333  and  _334
REMARK  139  A    between atoms: _337  and  _339
REMARK  140  A    between atoms: _339  and  _340
REMARK  141  A    between atoms: _339  and  _342
REMARK  142  A    between atoms: _342  and  _343
REMARK  143  A    between atoms: _346  and  _348
REMARK  144  A    between atoms: _348  and  _349
REMARK  145  A    between atoms: _351  and  _353
REMARK  146  A    between atoms: _353  and  _354
REMARK  147  A    between atoms: _357  and  _359
REMARK  148  A    between atoms: _359  and  _360
REMARK  149  A    between atoms: _359  and  _362
REMARK  150  A    between atoms: _362  and  _363
REMARK  151  A    between atoms: _366  and  _368
REMARK  152  A    between atoms: _368  and  _369
REMARK  153  A    between atoms: _368  and  _371
REMARK  154  A    between atoms: _371  and  _372
REMARK  155  A    between atoms: _375  and  _377
REMARK  156  A    between atoms: _377  and  _378
REMARK  157  A    between atoms: _377  and  _380
REMARK  158  A    between atoms: _380  and  _381
REMARK  159  A    between atoms: _384  and  _386
REMARK  160  A    between atoms: _386  and  _387
REMARK  161  A    between atoms: _386  and  _389
REMARK  162  A    between atoms: _392  and  _394
REMARK  163  A    between atoms: _394  and  _395
REMARK  164  A    between atoms: _394  and  _397
REMARK  165  A    between atoms: _397  and  _398
REMARK  166  A    between atoms: _398  and  _399
REMARK  167  A    between atoms: _399  and  _400
REMARK  168  A    between atoms: _400  and  _401
REMARK  169  A    between atoms: _405  and  _407
REMARK  170  A    between atoms: _407  and  _408
REMARK  171  A    between atoms: _407  and  _410
REMARK  172  A    between atoms: _410  and  _411
REMARK  173  A    between atoms: _411  and  _412
REMARK  174  A    between atoms: _414  and  _416
REMARK  175  A    between atoms: _416  and  _417
REMARK  176  A    between atoms: _416  and  _419
REMARK  177  A    between atoms: _419  and  _420
REMARK  178  A    between atoms: _423  and  _425
REMARK  179  A    between atoms: _425  and  _426
REMARK  180  A    between atoms: _428  and  _430
REMARK  181  A    between atoms: _430  and  _431
REMARK  182  A    between atoms: _433  and  _435
REMARK  183  A    between atoms: _435  and  _436
REMARK  184  A    between atoms: _435  and  _438
REMARK  185  A    between atoms: _438  and  _439
REMARK  186  A    between atoms: _442  and  _444
REMARK  187  A    between atoms: _444  and  _445
REMARK  188  A    between atoms: _447  and  _449
REMARK  189  A    between atoms: _449  and  _450
REMARK  190  A    between atoms: _452  and  _454
REMARK  191  A    between atoms: _454  and  _455
REMARK  192  A    between atoms: _454  and  _457
REMARK  193  A    between atoms: _457  and  _458
REMARK  194  A    between atoms: _464  and  _466
REMARK  195  A    between atoms: _466  and  _467
REMARK  196  A    between atoms: _466  and  _469
REMARK  197  A    between atoms: _469  and  _470
REMARK  198  A    between atoms: _473  and  _475
REMARK  199  A    between atoms: _475  and  _476
REMARK  200  A    between atoms: _475  and  _478
REMARK  201  A    between atoms: _481  and  _483
REMARK  202  A    between atoms: _483  and  _484
REMARK  203  A    between atoms: _483  and  _486
REMARK  204  A    between atoms: _486  and  _487
REMARK  205  A    between atoms: _491  and  _492
REMARK  206  A    between atoms: _497  and  _499
REMARK  207  A    between atoms: _499  and  _500
REMARK  208  A    between atoms: _499  and  _502
REMARK  209  A    between atoms: _502  and  _503
REMARK  210  A    between atoms: _507  and  _508
REMARK  211  A    between atoms: _513  and  _515
REMARK  212  A    between atoms: _515  and  _516
REMARK  213  A    between atoms: _515  and  _518
REMARK  214  A    between atoms: _521  and  _523
REMARK  215  A    between atoms: _523  and  _524
REMARK  216  A    between atoms: _523  and  _526
REMARK  217  A    between atoms: _526  and  _527
REMARK  218  A    between atoms: _532  and  _534
REMARK  219  A    between atoms: _534  and  _535
REMARK  220  A    between atoms: _534  and  _537
REMARK  221  A    between atoms: _537  and  _538
REMARK  222  A    between atoms: _541  and  _543
REMARK  223  A    between atoms: _543  and  _544
REMARK  224  A    between atoms: _543  and  _546
REMARK  225  A    between atoms: _546  and  _547
REMARK  226  A    between atoms: _550  and  _552
REMARK  227  A    between atoms: _552  and  _553
REMARK  228  A    between atoms: _555  and  _557
REMARK  229  A    between atoms: _557  and  _558
REMARK  230  A    between atoms: _557  and  _560
REMARK  231  A    between atoms: _560  and  _561
REMARK  232  A    between atoms: _561  and  _562
REMARK  233  A    between atoms: _562  and  _563
REMARK  234  A    between atoms: _572  and  _574
REMARK  235  A    between atoms: _574  and  _575
REMARK  236  A    between atoms: _574  and  _577
REMARK  237  A    between atoms: _577  and  _578
REMARK                            x       y       z     vdW  Elec       q    Type
REMARK                         _______ _______ _______ _____ _____    ______ ____
ROOT
ATOM      1  O   HOH     1      17.396 -24.873 -16.126  0.00  0.00    +0.000 OA
ENDROOT
TORSDOF 0
REMARK  Name = ../refined-set-2016/2pwr/2pwr_pocket.pdb
REMARK  237 active torsions:
REMARK  status: ('A' for Active; 'I' for Inactive)
REMARK    1  A    between atoms: _1  and  _3
REMARK    2  A    between atoms: _3  and  _4
REMARK    3  A    between atoms: _3  and  _6
REMARK    4  A    between atoms: _6  and  _7
REMARK    5  A    between atoms: _7  and  _8
REMARK    6  A    between atoms: _8  and  _9
REMARK    7  A    between atoms: _18  and  _20
REMARK    8  A    between atoms: _20  and  _21
REMARK    9  A    between atoms: _20  and  _23
REMARK   10  A    between atoms: _23  and  _24
REMARK   11  A    between atoms: _27  and  _29
REMARK   12  A    between atoms: _29  and  _30
REMARK   13  A    between atoms: _29  and  _32
REMARK   14  A    between atoms: _32  and  _33
REMARK   15  A    between atoms: _36  and  _38
REMARK   16  A    between atoms: _38  and  _39
REMARK   17  A    between atoms: _38  and  _41
REMARK   18  A    between atoms: _41  and  _42
REMARK   19  A    between atoms: _45  and  _47
REMARK   20  A    between atoms: _47  and  _48
REMARK   21  A    between atoms: _47  and  _50
REMARK   22  A    between atoms: _50  and  _51
REMARK   23  A    between atoms: _54  and  _56
REMARK   24  A    between atoms: _56  and  _57
REMARK   25  A    between atoms: _59  and  _61
REMARK   26  A    between atoms: _61  and  _62
REMARK   27  A    between atoms: _65  and  _67
REMARK   28  A    between atoms: _67  and  _68
REMARK   29  A    between atoms: _67  and  _70
REMARK   30  A    between atoms: _70  and  _71
REMARK   31  A    between atoms: _74  and  _76
REMARK   32  A    between atoms: _76  and  _77
REMARK   33  A    between atoms: _76  and  _79
REMARK   34  A    between atoms: _79  and  _80
REMARK   35  A    between atoms: _83  and  _85
REMARK   36  A    between atoms: _85  and  _86
REMARK   37  A    between atoms: _85  and  _88
REMARK   38  A    between atoms: _88  and  _89
REMARK   39  A    between atoms: _92  and  _94
REMARK   40  A    between atoms: _94  and  _95
REMARK   41  A    between atoms: _94  and  _97
REMARK   42  A    between atoms: _100  and  _102
REMARK   43  A    between atoms: _102  and  _103
REMARK   44  A    between atoms: _102  and  _105
REMARK   45  A    between atoms: _105  and  _106
REMARK   46  A    between atoms: _106  and  _107
REMARK   47  A    between atoms: _107  and  _108
REMARK   48  A    between atoms: _108  and  _109
REMARK   49  A    between atoms: _113  and  _115
REMARK   50  A    between atoms: _115  and  _116
REMARK   51  A    between atoms: _115  and  _118
REMARK   52  A    between atoms: _118  and  _119
REMARK   53  A    between atoms: _119  and  _120
REMARK   54  A    between atoms: _122  and  _124
REMARK   55  A    between atoms: _124  and  _125
REMARK   56  A    between atoms: _124  and  _127
REMARK   57  A    between atoms: _127  and  _128
REMARK   58  A    between atoms: _131  and  _133
REMARK   59  A    between atoms: _133  and  _134
REMARK   60  A    between atoms: _136  and  _138
REMARK   61  A    between atoms: _138  and  _139
REMARK   62  A    between atoms: _141  and  _143
REMARK   63  A    between atoms: _143  and  _144
REMARK   64  A    between atoms: _143  and  _146
REMARK   65  A    between atoms: _146  and  _147
REMARK   66  A    between atoms: _150  and  _152
REMARK   67  A    between atoms: _152  and  _153
REMARK   68  A    between atoms: _155  and  _157
REMARK   69  A    between atoms: _157  and  _158
REMARK   70  A    between atoms: _160  and  _162
REMARK   71  A    between atoms: _162  and  _163
REMARK   72  A    between atoms: _162  and  _165
REMARK   73  A    between atoms: _165  and  _166
REMARK   74  A    between atoms: _172  and  _174
REMARK   75  A    between atoms: _174  and  _175
REMARK   76  A    between atoms: _174  and  _177
REMARK   77  A    between atoms: _177  and  _178
REMARK   78  A    between atoms: _181  and  _183
REMARK   79  A    between atoms: _183  and  _184
REMARK   80  A    between atoms: _183  and  _186
REMARK   81  A    between atoms: _189  and  _191
REMARK   82  A    between atoms: _191  and  _192
REMARK   83  A    between atoms: _191  and  _194
REMARK   84  A    between atoms: _194  and  _195
REMARK   85  A    between atoms: _198  and  _200
REMARK   86  A    between atoms: _200  and  _201
REMARK   87  A    between atoms: _200  and  _203
REMARK   88  A    between atoms: _203  and  _204
REMARK   89  A    between atoms: _208  and  _209
REMARK   90  A    between atoms: _214  and  _216
REMARK   91  A    between atoms: _216  and  _217
REMARK   92  A    between atoms: _216  and  _219
REMARK   93  A    between atoms: _222  and  _224
REMARK   94  A    between atoms: _224  and  _225
REMARK   95  A    between atoms: _224  and  _227
REMARK   96  A    between atoms: _227  and  _228
REMARK   97  A    between atoms: _233  and  _235
REMARK   98  A    between atoms: _235  and  _236
REMARK   99  A    between atoms: _235  and  _238
REMARK  100  A    between atoms: _238  and  _239
REMARK  101  A    between atoms: _242  and  _244
REMARK  102  A    between atoms: _244  and  _245
REMARK  103  A    between atoms: _244  and  _247
REMARK  104  A    between atoms: _247  and  _248
REMARK  105  A    between atoms: _251  and  _253
REMARK  106  A    between atoms: _253  and  _254
REMARK  107  A    between atoms: _256  and  _258
REMARK  108  A    between atoms: _258  and  _259
REMARK  109  A    between atoms: _258  and  _261
REMARK  110  A    between atoms: _261  and  _262
REMARK  111  A    between atoms: _262  and  _263
REMARK  112  A    between atoms: _263  and  _264
REMARK  113  A    between atoms: _273  and  _275
REMARK  114  A    between atoms: _275  and  _276
REMARK  115  A    between atoms: _275  and  _278
REMARK  116  A    between atoms: _278  and  _279
REMARK  117  A    between atoms: _284  and  _286
REMARK  118  A    between atoms: _286  and  _287
REMARK  119  A    between atoms: _286  and  _289
REMARK  120  A    between atoms: _289  and  _290
REMARK  121  A    between atoms: _290  and  _291
REMARK  122  A    between atoms: _291  and  _292
REMARK  123  A    between atoms: _301  and  _303
REMARK  124  A    between atoms: _303  and  _304
REMARK  125  A    between atoms: _303  and  _306
REMARK  126  A    between atoms: _306  and  _307
REMARK  127  A    between atoms: _310  and  _312
REMARK  128  A    between atoms: _312  and  _313
REMARK  129  A    between atoms: _312  and  _315
REMARK  130  A    between atoms: _315  and  _316
REMARK  131  A    between atoms: _319  and  _321
REMARK  132  A    between atoms: _321  and  _322
REMARK  133  A    between atoms: _321  and  _324
REMARK  134  A    between atoms: _324  and  _325
REMARK  135  A    between atoms: _328  and  _330
REMARK  136  A    between atoms: _330  and  _331
REMARK  137  A    between atoms: _330  and  _333
REMARK  138  A    between atoms: _333  and  _334
REMARK  139  A    between atoms: _337  and  _339
REMARK  140  A    between atoms: _339  and  _340
REMARK  141  A    between atoms: _339  and  _342
REMARK  142  A    between atoms: _342  and  _343
REMARK  143  A    between atoms: _346  and  _348
REMARK  144  A    between atoms: _348  and  _349
REMARK  145  A    between atoms: _351  and  _353
REMARK  146  A    between atoms: _353  and  _354
REMARK  147  A    between atoms: _357  and  _359
REMARK  148  A    between atoms: _359  and  _360
REMARK  149  A    between atoms: _359  and  _362
REMARK  150  A    between atoms: _362  and  _363
REMARK  151  A    between atoms: _366  and  _368
REMARK  152  A    between atoms: _368  and  _369
REMARK  153  A    between atoms: _368  and  _371
REMARK  154  A    between atoms: _371  and  _372
REMARK  155  A    between atoms: _375  and  _377
REMARK  156  A    between atoms: _377  and  _378
REMARK  157  A    between atoms: _377  and  _380
REMARK  158  A    between atoms: _380  and  _381
REMARK  159  A    between atoms: _384  and  _386
REMARK  160  A    between atoms: _386  and  _387
REMARK  161  A    between atoms: _386  and  _389
REMARK  162  A    between atoms: _392  and  _394
REMARK  163  A    between atoms: _394  and  _395
REMARK  164  A    between atoms: _394  and  _397
REMARK  165  A    between atoms: _397  and  _398
REMARK  166  A    between atoms: _398  and  _399
REMARK  167  A    between atoms: _399  and  _400
REMARK  168  A    between atoms: _400  and  _401
REMARK  169  A    between atoms: _405  and  _407
REMARK  170  A    between atoms: _407  and  _408
REMARK  171  A    between atoms: _407  and  _410
REMARK  172  A    between atoms: _410  and  _411
REMARK  173  A    between atoms: _411  and  _412
REMARK  174  A    between atoms: _414  and  _416
REMARK  175  A    between atoms: _416  and  _417
REMARK  176  A    between atoms: _416  and  _419
REMARK  177  A    between atoms: _419  and  _420
REMARK  178  A    between atoms: _423  and  _425
REMARK  179  A    between atoms: _425  and  _426
REMARK  180  A    between atoms: _428  and  _430
REMARK  181  A    between atoms: _430  and  _431
REMARK  182  A    between atoms: _433  and  _435
REMARK  183  A    between atoms: _435  and  _436
REMARK  184  A    between atoms: _435  and  _438
REMARK  185  A    between atoms: _438  and  _439
REMARK  186  A    between atoms: _442  and  _444
REMARK  187  A    between atoms: _444  and  _445
REMARK  188  A    between atoms: _447  and  _449
REMARK  189  A    between atoms: _449  and  _450
REMARK  190  A    between atoms: _452  and  _454
REMARK  191  A    between atoms: _454  and  _455
REMARK  192  A    between atoms: _454  and  _457
REMARK  193  A    between atoms: _457  and  _458
REMARK  194  A    between atoms: _464  and  _466
REMARK  195  A    between atoms: _466  and  _467
REMARK  196  A    between atoms: _466  and  _469
REMARK  197  A    between atoms: _469  and  _470
REMARK  198  A    between atoms: _473  and  _475
REMARK  199  A    between atoms: _475  and  _476
REMARK  200  A    between atoms: _475  and  _478
REMARK  201  A    between atoms: _481  and  _483
REMARK  202  A    between atoms: _483  and  _484
REMARK  203  A    between atoms: _483  and  _486
REMARK  204  A    between atoms: _486  and  _487
REMARK  205  A    between atoms: _491  and  _492
REMARK  206  A    between atoms: _497  and  _499
REMARK  207  A    between atoms: _499  and  _500
REMARK  208  A    between atoms: _499  and  _502
REMARK  209  A    between atoms: _502  and  _503
REMARK  210  A    between atoms: _507  and  _508
REMARK  211  A    between atoms: _513  and  _515
REMARK  212  A    between atoms: _515  and  _516
REMARK  213  A    between atoms: _515  and  _518
REMARK  214  A    between atoms: _521  and  _523
REMARK  215  A    between atoms: _523  and  _524
REMARK  216  A    between atoms: _523  and  _526
REMARK  217  A    between atoms: _526  and  _527
REMARK  218  A    between atoms: _532  and  _534
REMARK  219  A    between atoms: _534  and  _535
REMARK  220  A    between atoms: _534  and  _537
REMARK  221  A    between atoms: _537  and  _538
REMARK  222  A    between atoms: _541  and  _543
REMARK  223  A    between atoms: _543  and  _544
REMARK  224  A    between atoms: _543  and  _546
REMARK  225  A    between atoms: _546  and  _547
REMARK  226  A    between atoms: _550  and  _552
REMARK  227  A    between atoms: _552  and  _553
REMARK  228  A    between atoms: _555  and  _557
REMARK  229  A    between atoms: _557  and  _558
REMARK  230  A    between atoms: _557  and  _560
REMARK  231  A    between atoms: _560  and  _561
REMARK  232  A    between atoms: _561  and  _562
REMARK  233  A    between atoms: _562  and  _563
REMARK  234  A    between atoms: _572  and  _574
REMARK  235  A    between atoms: _574  and  _575
REMARK  236  A    between atoms: _574  and  _577
REMARK  237  A    between atoms: _577  and  _578
REMARK                            x       y       z     vdW  Elec       q    Type
REMARK                         _______ _______ _______ _____ _____    ______ ____
ROOT
ATOM      1  O   HOH     1      24.110 -23.673 -22.825  0.00  0.00    +0.000 OA
ENDROOT
TORSDOF 0
REMARK  Name = ../refined-set-2016/2pwr/2pwr_pocket.pdb
REMARK  237 active torsions:
REMARK  status: ('A' for Active; 'I' for Inactive)
REMARK    1  A    between atoms: _1  and  _3
REMARK    2  A    between atoms: _3  and  _4
REMARK    3  A    between atoms: _3  and  _6
REMARK    4  A    between atoms: _6  and  _7
REMARK    5  A    between atoms: _7  and  _8
REMARK    6  A    between atoms: _8  and  _9
REMARK    7  A    between atoms: _18  and  _20
REMARK    8  A    between atoms: _20  and  _21
REMARK    9  A    between atoms: _20  and  _23
REMARK   10  A    between atoms: _23  and  _24
REMARK   11  A    between atoms: _27  and  _29
REMARK   12  A    between atoms: _29  and  _30
REMARK   13  A    between atoms: _29  and  _32
REMARK   14  A    between atoms: _32  and  _33
REMARK   15  A    between atoms: _36  and  _38
REMARK   16  A    between atoms: _38  and  _39
REMARK   17  A    between atoms: _38  and  _41
REMARK   18  A    between atoms: _41  and  _42
REMARK   19  A    between atoms: _45  and  _47
REMARK   20  A    between atoms: _47  and  _48
REMARK   21  A    between atoms: _47  and  _50
REMARK   22  A    between atoms: _50  and  _51
REMARK   23  A    between atoms: _54  and  _56
REMARK   24  A    between atoms: _56  and  _57
REMARK   25  A    between atoms: _59  and  _61
REMARK   26  A    between atoms: _61  and  _62
REMARK   27  A    between atoms: _65  and  _67
REMARK   28  A    between atoms: _67  and  _68
REMARK   29  A    between atoms: _67  and  _70
REMARK   30  A    between atoms: _70  and  _71
REMARK   31  A    between atoms: _74  and  _76
REMARK   32  A    between atoms: _76  and  _77
REMARK   33  A    between atoms: _76  and  _79
REMARK   34  A    between atoms: _79  and  _80
REMARK   35  A    between atoms: _83  and  _85
REMARK   36  A    between atoms: _85  and  _86
REMARK   37  A    between atoms: _85  and  _88
REMARK   38  A    between atoms: _88  and  _89
REMARK   39  A    between atoms: _92  and  _94
REMARK   40  A    between atoms: _94  and  _95
REMARK   41  A    between atoms: _94  and  _97
REMARK   42  A    between atoms: _100  and  _102
REMARK   43  A    between atoms: _102  and  _103
REMARK   44  A    between atoms: _102  and  _105
REMARK   45  A    between atoms: _105  and  _106
REMARK   46  A    between atoms: _106  and  _107
REMARK   47  A    between atoms: _107  and  _108
REMARK   48  A    between atoms: _108  and  _109
REMARK   49  A    between atoms: _113  and  _115
REMARK   50  A    between atoms: _115  and  _116
REMARK   51  A    between atoms: _115  and  _118
REMARK   52  A    between atoms: _118  and  _119
REMARK   53  A    between atoms: _119  and  _120
REMARK   54  A    between atoms: _122  and  _124
REMARK   55  A    between atoms: _124  and  _125
REMARK   56  A    between atoms: _124  and  _127
REMARK   57  A    between atoms: _127  and  _128
REMARK   58  A    between atoms: _131  and  _133
REMARK   59  A    between atoms: _133  and  _134
REMARK   60  A    between atoms: _136  and  _138
REMARK   61  A    between atoms: _138  and  _139
REMARK   62  A    between atoms: _141  and  _143
REMARK   63  A    between atoms: _143  and  _144
REMARK   64  A    between atoms: _143  and  _146
REMARK   65  A    between atoms: _146  and  _147
REMARK   66  A    between atoms: _150  and  _152
REMARK   67  A    between atoms: _152  and  _153
REMARK   68  A    between atoms: _155  and  _157
REMARK   69  A    between atoms: _157  and  _158
REMARK   70  A    between atoms: _160  and  _162
REMARK   71  A    between atoms: _162  and  _163
REMARK   72  A    between atoms: _162  and  _165
REMARK   73  A    between atoms: _165  and  _166
REMARK   74  A    between atoms: _172  and  _174
REMARK   75  A    between atoms: _174  and  _175
REMARK   76  A    between atoms: _174  and  _177
REMARK   77  A    between atoms: _177  and  _178
REMARK   78  A    between atoms: _181  and  _183
REMARK   79  A    between atoms: _183  and  _184
REMARK   80  A    between atoms: _183  and  _186
REMARK   81  A    between atoms: _189  and  _191
REMARK   82  A    between atoms: _191  and  _192
REMARK   83  A    between atoms: _191  and  _194
REMARK   84  A    between atoms: _194  and  _195
REMARK   85  A    between atoms: _198  and  _200
REMARK   86  A    between atoms: _200  and  _201
REMARK   87  A    between atoms: _200  and  _203
REMARK   88  A    between atoms: _203  and  _204
REMARK   89  A    between atoms: _208  and  _209
REMARK   90  A    between atoms: _214  and  _216
REMARK   91  A    between atoms: _216  and  _217
REMARK   92  A    between atoms: _216  and  _219
REMARK   93  A    between atoms: _222  and  _224
REMARK   94  A    between atoms: _224  and  _225
REMARK   95  A    between atoms: _224  and  _227
REMARK   96  A    between atoms: _227  and  _228
REMARK   97  A    between atoms: _233  and  _235
REMARK   98  A    between atoms: _235  and  _236
REMARK   99  A    between atoms: _235  and  _238
REMARK  100  A    between atoms: _238  and  _239
REMARK  101  A    between atoms: _242  and  _244
REMARK  102  A    between atoms: _244  and  _245
REMARK  103  A    between atoms: _244  and  _247
REMARK  104  A    between atoms: _247  and  _248
REMARK  105  A    between atoms: _251  and  _253
REMARK  106  A    between atoms: _253  and  _254
REMARK  107  A    between atoms: _256  and  _258
REMARK  108  A    between atoms: _258  and  _259
REMARK  109  A    between atoms: _258  and  _261
REMARK  110  A    between atoms: _261  and  _262
REMARK  111  A    between atoms: _262  and  _263
REMARK  112  A    between atoms: _263  and  _264
REMARK  113  A    between atoms: _273  and  _275
REMARK  114  A    between atoms: _275  and  _276
REMARK  115  A    between atoms: _275  and  _278
REMARK  116  A    between atoms: _278  and  _279
REMARK  117  A    between atoms: _284  and  _286
REMARK  118  A    between atoms: _286  and  _287
REMARK  119  A    between atoms: _286  and  _289
REMARK  120  A    between atoms: _289  and  _290
REMARK  121  A    between atoms: _290  and  _291
REMARK  122  A    between atoms: _291  and  _292
REMARK  123  A    between atoms: _301  and  _303
REMARK  124  A    between atoms: _303  and  _304
REMARK  125  A    between atoms: _303  and  _306
REMARK  126  A    between atoms: _306  and  _307
REMARK  127  A    between atoms: _310  and  _312
REMARK  128  A    between atoms: _312  and  _313
REMARK  129  A    between atoms: _312  and  _315
REMARK  130  A    between atoms: _315  and  _316
REMARK  131  A    between atoms: _319  and  _321
REMARK  132  A    between atoms: _321  and  _322
REMARK  133  A    between atoms: _321  and  _324
REMARK  134  A    between atoms: _324  and  _325
REMARK  135  A    between atoms: _328  and  _330
REMARK  136  A    between atoms: _330  and  _331
REMARK  137  A    between atoms: _330  and  _333
REMARK  138  A    between atoms: _333  and  _334
REMARK  139  A    between atoms: _337  and  _339
REMARK  140  A    between atoms: _339  and  _340
REMARK  141  A    between atoms: _339  and  _342
REMARK  142  A    between atoms: _342  and  _343
REMARK  143  A    between atoms: _346  and  _348
REMARK  144  A    between atoms: _348  and  _349
REMARK  145  A    between atoms: _351  and  _353
REMARK  146  A    between atoms: _353  and  _354
REMARK  147  A    between atoms: _357  and  _359
REMARK  148  A    between atoms: _359  and  _360
REMARK  149  A    between atoms: _359  and  _362
REMARK  150  A    between atoms: _362  and  _363
REMARK  151  A    between atoms: _366  and  _368
REMARK  152  A    between atoms: _368  and  _369
REMARK  153  A    between atoms: _368  and  _371
REMARK  154  A    between atoms: _371  and  _372
REMARK  155  A    between atoms: _375  and  _377
REMARK  156  A    between atoms: _377  and  _378
REMARK  157  A    between atoms: _377  and  _380
REMARK  158  A    between atoms: _380  and  _381
REMARK  159  A    between atoms: _384  and  _386
REMARK  160  A    between atoms: _386  and  _387
REMARK  161  A    between atoms: _386  and  _389
REMARK  162  A    between atoms: _392  and  _394
REMARK  163  A    between atoms: _394  and  _395
REMARK  164  A    between atoms: _394  and  _397
REMARK  165  A    between atoms: _397  and  _398
REMARK  166  A    between atoms: _398  and  _399
REMARK  167  A    between atoms: _399  and  _400
REMARK  168  A    between atoms: _400  and  _401
REMARK  169  A    between atoms: _405  and  _407
REMARK  170  A    between atoms: _407  and  _408
REMARK  171  A    between atoms: _407  and  _410
REMARK  172  A    between atoms: _410  and  _411
REMARK  173  A    between atoms: _411  and  _412
REMARK  174  A    between atoms: _414  and  _416
REMARK  175  A    between atoms: _416  and  _417
REMARK  176  A    between atoms: _416  and  _419
REMARK  177  A    between atoms: _419  and  _420
REMARK  178  A    between atoms: _423  and  _425
REMARK  179  A    between atoms: _425  and  _426
REMARK  180  A    between atoms: _428  and  _430
REMARK  181  A    between atoms: _430  and  _431
REMARK  182  A    between atoms: _433  and  _435
REMARK  183  A    between atoms: _435  and  _436
REMARK  184  A    between atoms: _435  and  _438
REMARK  185  A    between atoms: _438  and  _439
REMARK  186  A    between atoms: _442  and  _444
REMARK  187  A    between atoms: _444  and  _445
REMARK  188  A    between atoms: _447  and  _449
REMARK  189  A    between atoms: _449  and  _450
REMARK  190  A    between atoms: _452  and  _454
REMARK  191  A    between atoms: _454  and  _455
REMARK  192  A    between atoms: _454  and  _457
REMARK  193  A    between atoms: _457  and  _458
REMARK  194  A    between atoms: _464  and  _466
REMARK  195  A    between atoms: _466  and  _467
REMARK  196  A    between atoms: _466  and  _469
REMARK  197  A    between atoms: _469  and  _470
REMARK  198  A    between atoms: _473  and  _475
REMARK  199  A    between atoms: _475  and  _476
REMARK  200  A    between atoms: _475  and  _478
REMARK  201  A    between atoms: _481  and  _483
REMARK  202  A    between atoms: _483  and  _484
REMARK  203  A    between atoms: _483  and  _486
REMARK  204  A    between atoms: _486  and  _487
REMARK  205  A    between atoms: _491  and  _492
REMARK  206  A    between atoms: _497  and  _499
REMARK  207  A    between atoms: _499  and  _500
REMARK  208  A    between atoms: _499  and  _502
REMARK  209  A    between atoms: _502  and  _503
REMARK  210  A    between atoms: _507  and  _508
REMARK  211  A    between atoms: _513  and  _515
REMARK  212  A    between atoms: _515  and  _516
REMARK  213  A    between atoms: _515  and  _518
REMARK  214  A    between atoms: _521  and  _523
REMARK  215  A    between atoms: _523  and  _524
REMARK  216  A    between atoms: _523  and  _526
REMARK  217  A    between atoms: _526  and  _527
REMARK  218  A    between atoms: _532  and  _534
REMARK  219  A    between atoms: _534  and  _535
REMARK  220  A    between atoms: _534  and  _537
REMARK  221  A    between atoms: _537  and  _538
REMARK  222  A    between atoms: _541  and  _543
REMARK  223  A    between atoms: _543  and  _544
REMARK  224  A    between atoms: _543  and  _546
REMARK  225  A    between atoms: _546  and  _547
REMARK  226  A    between atoms: _550  and  _552
REMARK  227  A    between atoms: _552  and  _553
REMARK  228  A    between atoms: _555  and  _557
REMARK  229  A    between atoms: _557  and  _558
REMARK  230  A    between atoms: _557  and  _560
REMARK  231  A    between atoms: _560  and  _561
REMARK  232  A    between atoms: _561  and  _562
REMARK  233  A    between atoms: _562  and  _563
REMARK  234  A    between atoms: _572  and  _574
REMARK  235  A    between atoms: _574  and  _575
REMARK  236  A    between atoms: _574  and  _577
REMARK  237  A    between atoms: _577  and  _578
REMARK                            x       y       z     vdW  Elec       q    Type
REMARK                         _______ _______ _______ _____ _____    ______ ____
ROOT
ATOM      1  O   HOH     1      21.749 -29.843 -24.542  0.00  0.00    +0.000 OA
ENDROOT
TORSDOF 0
REMARK  Name = ../refined-set-2016/2pwr/2pwr_pocket.pdb
REMARK  237 active torsions:
REMARK  status: ('A' for Active; 'I' for Inactive)
REMARK    1  A    between atoms: _1  and  _3
REMARK    2  A    between atoms: _3  and  _4
REMARK    3  A    between atoms: _3  and  _6
REMARK    4  A    between atoms: _6  and  _7
REMARK    5  A    between atoms: _7  and  _8
REMARK    6  A    between atoms: _8  and  _9
REMARK    7  A    between atoms: _18  and  _20
REMARK    8  A    between atoms: _20  and  _21
REMARK    9  A    between atoms: _20  and  _23
REMARK   10  A    between atoms: _23  and  _24
REMARK   11  A    between atoms: _27  and  _29
REMARK   12  A    between atoms: _29  and  _30
REMARK   13  A    between atoms: _29  and  _32
REMARK   14  A    between atoms: _32  and  _33
REMARK   15  A    between atoms: _36  and  _38
REMARK   16  A    between atoms: _38  and  _39
REMARK   17  A    between atoms: _38  and  _41
REMARK   18  A    between atoms: _41  and  _42
REMARK   19  A    between atoms: _45  and  _47
REMARK   20  A    between atoms: _47  and  _48
REMARK   21  A    between atoms: _47  and  _50
REMARK   22  A    between atoms: _50  and  _51
REMARK   23  A    between atoms: _54  and  _56
REMARK   24  A    between atoms: _56  and  _57
REMARK   25  A    between atoms: _59  and  _61
REMARK   26  A    between atoms: _61  and  _62
REMARK   27  A    between atoms: _65  and  _67
REMARK   28  A    between atoms: _67  and  _68
REMARK   29  A    between atoms: _67  and  _70
REMARK   30  A    between atoms: _70  and  _71
REMARK   31  A    between atoms: _74  and  _76
REMARK   32  A    between atoms: _76  and  _77
REMARK   33  A    between atoms: _76  and  _79
REMARK   34  A    between atoms: _79  and  _80
REMARK   35  A    between atoms: _83  and  _85
REMARK   36  A    between atoms: _85  and  _86
REMARK   37  A    between atoms: _85  and  _88
REMARK   38  A    between atoms: _88  and  _89
REMARK   39  A    between atoms: _92  and  _94
REMARK   40  A    between atoms: _94  and  _95
REMARK   41  A    between atoms: _94  and  _97
REMARK   42  A    between atoms: _100  and  _102
REMARK   43  A    between atoms: _102  and  _103
REMARK   44  A    between atoms: _102  and  _105
REMARK   45  A    between atoms: _105  and  _106
REMARK   46  A    between atoms: _106  and  _107
REMARK   47  A    between atoms: _107  and  _108
REMARK   48  A    between atoms: _108  and  _109
REMARK   49  A    between atoms: _113  and  _115
REMARK   50  A    between atoms: _115  and  _116
REMARK   51  A    between atoms: _115  and  _118
REMARK   52  A    between atoms: _118  and  _119
REMARK   53  A    between atoms: _119  and  _120
REMARK   54  A    between atoms: _122  and  _124
REMARK   55  A    between atoms: _124  and  _125
REMARK   56  A    between atoms: _124  and  _127
REMARK   57  A    between atoms: _127  and  _128
REMARK   58  A    between atoms: _131  and  _133
REMARK   59  A    between atoms: _133  and  _134
REMARK   60  A    between atoms: _136  and  _138
REMARK   61  A    between atoms: _138  and  _139
REMARK   62  A    between atoms: _141  and  _143
REMARK   63  A    between atoms: _143  and  _144
REMARK   64  A    between atoms: _143  and  _146
REMARK   65  A    between atoms: _146  and  _147
REMARK   66  A    between atoms: _150  and  _152
REMARK   67  A    between atoms: _152  and  _153
REMARK   68  A    between atoms: _155  and  _157
REMARK   69  A    between atoms: _157  and  _158
REMARK   70  A    between atoms: _160  and  _162
REMARK   71  A    between atoms: _162  and  _163
REMARK   72  A    between atoms: _162  and  _165
REMARK   73  A    between atoms: _165  and  _166
REMARK   74  A    between atoms: _172  and  _174
REMARK   75  A    between atoms: _174  and  _175
REMARK   76  A    between atoms: _174  and  _177
REMARK   77  A    between atoms: _177  and  _178
REMARK   78  A    between atoms: _181  and  _183
REMARK   79  A    between atoms: _183  and  _184
REMARK   80  A    between atoms: _183  and  _186
REMARK   81  A    between atoms: _189  and  _191
REMARK   82  A    between atoms: _191  and  _192
REMARK   83  A    between atoms: _191  and  _194
REMARK   84  A    between atoms: _194  and  _195
REMARK   85  A    between atoms: _198  and  _200
REMARK   86  A    between atoms: _200  and  _201
REMARK   87  A    between atoms: _200  and  _203
REMARK   88  A    between atoms: _203  and  _204
REMARK   89  A    between atoms: _208  and  _209
REMARK   90  A    between atoms: _214  and  _216
REMARK   91  A    between atoms: _216  and  _217
REMARK   92  A    between atoms: _216  and  _219
REMARK   93  A    between atoms: _222  and  _224
REMARK   94  A    between atoms: _224  and  _225
REMARK   95  A    between atoms: _224  and  _227
REMARK   96  A    between atoms: _227  and  _228
REMARK   97  A    between atoms: _233  and  _235
REMARK   98  A    between atoms: _235  and  _236
REMARK   99  A    between atoms: _235  and  _238
REMARK  100  A    between atoms: _238  and  _239
REMARK  101  A    between atoms: _242  and  _244
REMARK  102  A    between atoms: _244  and  _245
REMARK  103  A    between atoms: _244  and  _247
REMARK  104  A    between atoms: _247  and  _248
REMARK  105  A    between atoms: _251  and  _253
REMARK  106  A    between atoms: _253  and  _254
REMARK  107  A    between atoms: _256  and  _258
REMARK  108  A    between atoms: _258  and  _259
REMARK  109  A    between atoms: _258  and  _261
REMARK  110  A    between atoms: _261  and  _262
REMARK  111  A    between atoms: _262  and  _263
REMARK  112  A    between atoms: _263  and  _264
REMARK  113  A    between atoms: _273  and  _275
REMARK  114  A    between atoms: _275  and  _276
REMARK  115  A    between atoms: _275  and  _278
REMARK  116  A    between atoms: _278  and  _279
REMARK  117  A    between atoms: _284  and  _286
REMARK  118  A    between atoms: _286  and  _287
REMARK  119  A    between atoms: _286  and  _289
REMARK  120  A    between atoms: _289  and  _290
REMARK  121  A    between atoms: _290  and  _291
REMARK  122  A    between atoms: _291  and  _292
REMARK  123  A    between atoms: _301  and  _303
REMARK  124  A    between atoms: _303  and  _304
REMARK  125  A    between atoms: _303  and  _306
REMARK  126  A    between atoms: _306  and  _307
REMARK  127  A    between atoms: _310  and  _312
REMARK  128  A    between atoms: _312  and  _313
REMARK  129  A    between atoms: _312  and  _315
REMARK  130  A    between atoms: _315  and  _316
REMARK  131  A    between atoms: _319  and  _321
REMARK  132  A    between atoms: _321  and  _322
REMARK  133  A    between atoms: _321  and  _324
REMARK  134  A    between atoms: _324  and  _325
REMARK  135  A    between atoms: _328  and  _330
REMARK  136  A    between atoms: _330  and  _331
REMARK  137  A    between atoms: _330  and  _333
REMARK  138  A    between atoms: _333  and  _334
REMARK  139  A    between atoms: _337  and  _339
REMARK  140  A    between atoms: _339  and  _340
REMARK  141  A    between atoms: _339  and  _342
REMARK  142  A    between atoms: _342  and  _343
REMARK  143  A    between atoms: _346  and  _348
REMARK  144  A    between atoms: _348  and  _349
REMARK  145  A    between atoms: _351  and  _353
REMARK  146  A    between atoms: _353  and  _354
REMARK  147  A    between atoms: _357  and  _359
REMARK  148  A    between atoms: _359  and  _360
REMARK  149  A    between atoms: _359  and  _362
REMARK  150  A    between atoms: _362  and  _363
REMARK  151  A    between atoms: _366  and  _368
REMARK  152  A    between atoms: _368  and  _369
REMARK  153  A    between atoms: _368  and  _371
REMARK  154  A    between atoms: _371  and  _372
REMARK  155  A    between atoms: _375  and  _377
REMARK  156  A    between atoms: _377  and  _378
REMARK  157  A    between atoms: _377  and  _380
REMARK  158  A    between atoms: _380  and  _381
REMARK  159  A    between atoms: _384  and  _386
REMARK  160  A    between atoms: _386  and  _387
REMARK  161  A    between atoms: _386  and  _389
REMARK  162  A    between atoms: _392  and  _394
REMARK  163  A    between atoms: _394  and  _395
REMARK  164  A    between atoms: _394  and  _397
REMARK  165  A    between atoms: _397  and  _398
REMARK  166  A    between atoms: _398  and  _399
REMARK  167  A    between atoms: _399  and  _400
REMARK  168  A    between atoms: _400  and  _401
REMARK  169  A    between atoms: _405  and  _407
REMARK  170  A    between atoms: _407  and  _408
REMARK  171  A    between atoms: _407  and  _410
REMARK  172  A    between atoms: _410  and  _411
REMARK  173  A    between atoms: _411  and  _412
REMARK  174  A    between atoms: _414  and  _416
REMARK  175  A    between atoms: _416  and  _417
REMARK  176  A    between atoms: _416  and  _419
REMARK  177  A    between atoms: _419  and  _420
REMARK  178  A    between atoms: _423  and  _425
REMARK  179  A    between atoms: _425  and  _426
REMARK  180  A    between atoms: _428  and  _430
REMARK  181  A    between atoms: _430  and  _431
REMARK  182  A    between atoms: _433  and  _435
REMARK  183  A    between atoms: _435  and  _436
REMARK  184  A    between atoms: _435  and  _438
REMARK  185  A    between atoms: _438  and  _439
REMARK  186  A    between atoms: _442  and  _444
REMARK  187  A    between atoms: _444  and  _445
REMARK  188  A    between atoms: _447  and  _449
REMARK  189  A    between atoms: _449  and  _450
REMARK  190  A    between atoms: _452  and  _454
REMARK  191  A    between atoms: _454  and  _455
REMARK  192  A    between atoms: _454  and  _457
REMARK  193  A    between atoms: _457  and  _458
REMARK  194  A    between atoms: _464  and  _466
REMARK  195  A    between atoms: _466  and  _467
REMARK  196  A    between atoms: _466  and  _469
REMARK  197  A    between atoms: _469  and  _470
REMARK  198  A    between atoms: _473  and  _475
REMARK  199  A    between atoms: _475  and  _476
REMARK  200  A    between atoms: _475  and  _478
REMARK  201  A    between atoms: _481  and  _483
REMARK  202  A    between atoms: _483  and  _484
REMARK  203  A    between atoms: _483  and  _486
REMARK  204  A    between atoms: _486  and  _487
REMARK  205  A    between atoms: _491  and  _492
REMARK  206  A    between atoms: _497  and  _499
REMARK  207  A    between atoms: _499  and  _500
REMARK  208  A    between atoms: _499  and  _502
REMARK  209  A    between atoms: _502  and  _503
REMARK  210  A    between atoms: _507  and  _508
REMARK  211  A    between atoms: _513  and  _515
REMARK  212  A    between atoms: _515  and  _516
REMARK  213  A    between atoms: _515  and  _518
REMARK  214  A    between atoms: _521  and  _523
REMARK  215  A    between atoms: _523  and  _524
REMARK  216  A    between atoms: _523  and  _526
REMARK  217  A    between atoms: _526  and  _527
REMARK  218  A    between atoms: _532  and  _534
REMARK  219  A    between atoms: _534  and  _535
REMARK  220  A    between atoms: _534  and  _537
REMARK  221  A    between atoms: _537  and  _538
REMARK  222  A    between atoms: _541  and  _543
REMARK  223  A    between atoms: _543  and  _544
REMARK  224  A    between atoms: _543  and  _546
REMARK  225  A    between atoms: _546  and  _547
REMARK  226  A    between atoms: _550  and  _552
REMARK  227  A    between atoms: _552  and  _553
REMARK  228  A    between atoms: _555  and  _557
REMARK  229  A    between atoms: _557  and  _558
REMARK  230  A    between atoms: _557  and  _560
REMARK  231  A    between atoms: _560  and  _561
REMARK  232  A    between atoms: _561  and  _562
REMARK  233  A    between atoms: _562  and  _563
REMARK  234  A    between atoms: _572  and  _574
REMARK  235  A    between atoms: _574  and  _575
REMARK  236  A    between atoms: _574  and  _577
REMARK  237  A    between atoms: _577  and  _578
REMARK                            x       y       z     vdW  Elec       q    Type
REMARK                         _______ _______ _______ _____ _____    ______ ____
ROOT
ATOM      1  O   HOH     1      21.661 -27.045 -25.508  0.00  0.00    +0.000 OA
ENDROOT
TORSDOF 0
REMARK  Name = ../refined-set-2016/2pwr/2pwr_pocket.pdb
REMARK  237 active torsions:
REMARK  status: ('A' for Active; 'I' for Inactive)
REMARK    1  A    between atoms: _1  and  _3
REMARK    2  A    between atoms: _3  and  _4
REMARK    3  A    between atoms: _3  and  _6
REMARK    4  A    between atoms: _6  and  _7
REMARK    5  A    between atoms: _7  and  _8
REMARK    6  A    between atoms: _8  and  _9
REMARK    7  A    between atoms: _18  and  _20
REMARK    8  A    between atoms: _20  and  _21
REMARK    9  A    between atoms: _20  and  _23
REMARK   10  A    between atoms: _23  and  _24
REMARK   11  A    between atoms: _27  and  _29
REMARK   12  A    between atoms: _29  and  _30
REMARK   13  A    between atoms: _29  and  _32
REMARK   14  A    between atoms: _32  and  _33
REMARK   15  A    between atoms: _36  and  _38
REMARK   16  A    between atoms: _38  and  _39
REMARK   17  A    between atoms: _38  and  _41
REMARK   18  A    between atoms: _41  and  _42
REMARK   19  A    between atoms: _45  and  _47
REMARK   20  A    between atoms: _47  and  _48
REMARK   21  A    between atoms: _47  and  _50
REMARK   22  A    between atoms: _50  and  _51
REMARK   23  A    between atoms: _54  and  _56
REMARK   24  A    between atoms: _56  and  _57
REMARK   25  A    between atoms: _59  and  _61
REMARK   26  A    between atoms: _61  and  _62
REMARK   27  A    between atoms: _65  and  _67
REMARK   28  A    between atoms: _67  and  _68
REMARK   29  A    between atoms: _67  and  _70
REMARK   30  A    between atoms: _70  and  _71
REMARK   31  A    between atoms: _74  and  _76
REMARK   32  A    between atoms: _76  and  _77
REMARK   33  A    between atoms: _76  and  _79
REMARK   34  A    between atoms: _79  and  _80
REMARK   35  A    between atoms: _83  and  _85
REMARK   36  A    between atoms: _85  and  _86
REMARK   37  A    between atoms: _85  and  _88
REMARK   38  A    between atoms: _88  and  _89
REMARK   39  A    between atoms: _92  and  _94
REMARK   40  A    between atoms: _94  and  _95
REMARK   41  A    between atoms: _94  and  _97
REMARK   42  A    between atoms: _100  and  _102
REMARK   43  A    between atoms: _102  and  _103
REMARK   44  A    between atoms: _102  and  _105
REMARK   45  A    between atoms: _105  and  _106
REMARK   46  A    between atoms: _106  and  _107
REMARK   47  A    between atoms: _107  and  _108
REMARK   48  A    between atoms: _108  and  _109
REMARK   49  A    between atoms: _113  and  _115
REMARK   50  A    between atoms: _115  and  _116
REMARK   51  A    between atoms: _115  and  _118
REMARK   52  A    between atoms: _118  and  _119
REMARK   53  A    between atoms: _119  and  _120
REMARK   54  A    between atoms: _122  and  _124
REMARK   55  A    between atoms: _124  and  _125
REMARK   56  A    between atoms: _124  and  _127
REMARK   57  A    between atoms: _127  and  _128
REMARK   58  A    between atoms: _131  and  _133
REMARK   59  A    between atoms: _133  and  _134
REMARK   60  A    between atoms: _136  and  _138
REMARK   61  A    between atoms: _138  and  _139
REMARK   62  A    between atoms: _141  and  _143
REMARK   63  A    between atoms: _143  and  _144
REMARK   64  A    between atoms: _143  and  _146
REMARK   65  A    between atoms: _146  and  _147
REMARK   66  A    between atoms: _150  and  _152
REMARK   67  A    between atoms: _152  and  _153
REMARK   68  A    between atoms: _155  and  _157
REMARK   69  A    between atoms: _157  and  _158
REMARK   70  A    between atoms: _160  and  _162
REMARK   71  A    between atoms: _162  and  _163
REMARK   72  A    between atoms: _162  and  _165
REMARK   73  A    between atoms: _165  and  _166
REMARK   74  A    between atoms: _172  and  _174
REMARK   75  A    between atoms: _174  and  _175
REMARK   76  A    between atoms: _174  and  _177
REMARK   77  A    between atoms: _177  and  _178
REMARK   78  A    between atoms: _181  and  _183
REMARK   79  A    between atoms: _183  and  _184
REMARK   80  A    between atoms: _183  and  _186
REMARK   81  A    between atoms: _189  and  _191
REMARK   82  A    between atoms: _191  and  _192
REMARK   83  A    between atoms: _191  and  _194
REMARK   84  A    between atoms: _194  and  _195
REMARK   85  A    between atoms: _198  and  _200
REMARK   86  A    between atoms: _200  and  _201
REMARK   87  A    between atoms: _200  and  _203
REMARK   88  A    between atoms: _203  and  _204
REMARK   89  A    between atoms: _208  and  _209
REMARK   90  A    between atoms: _214  and  _216
REMARK   91  A    between atoms: _216  and  _217
REMARK   92  A    between atoms: _216  and  _219
REMARK   93  A    between atoms: _222  and  _224
REMARK   94  A    between atoms: _224  and  _225
REMARK   95  A    between atoms: _224  and  _227
REMARK   96  A    between atoms: _227  and  _228
REMARK   97  A    between atoms: _233  and  _235
REMARK   98  A    between atoms: _235  and  _236
REMARK   99  A    between atoms: _235  and  _238
REMARK  100  A    between atoms: _238  and  _239
REMARK  101  A    between atoms: _242  and  _244
REMARK  102  A    between atoms: _244  and  _245
REMARK  103  A    between atoms: _244  and  _247
REMARK  104  A    between atoms: _247  and  _248
REMARK  105  A    between atoms: _251  and  _253
REMARK  106  A    between atoms: _253  and  _254
REMARK  107  A    between atoms: _256  and  _258
REMARK  108  A    between atoms: _258  and  _259
REMARK  109  A    between atoms: _258  and  _261
REMARK  110  A    between atoms: _261  and  _262
REMARK  111  A    between atoms: _262  and  _263
REMARK  112  A    between atoms: _263  and  _264
REMARK  113  A    between atoms: _273  and  _275
REMARK  114  A    between atoms: _275  and  _276
REMARK  115  A    between atoms: _275  and  _278
REMARK  116  A    between atoms: _278  and  _279
REMARK  117  A    between atoms: _284  and  _286
REMARK  118  A    between atoms: _286  and  _287
REMARK  119  A    between atoms: _286  and  _289
REMARK  120  A    between atoms: _289  and  _290
REMARK  121  A    between atoms: _290  and  _291
REMARK  122  A    between atoms: _291  and  _292
REMARK  123  A    between atoms: _301  and  _303
REMARK  124  A    between atoms: _303  and  _304
REMARK  125  A    between atoms: _303  and  _306
REMARK  126  A    between atoms: _306  and  _307
REMARK  127  A    between atoms: _310  and  _312
REMARK  128  A    between atoms: _312  and  _313
REMARK  129  A    between atoms: _312  and  _315
REMARK  130  A    between atoms: _315  and  _316
REMARK  131  A    between atoms: _319  and  _321
REMARK  132  A    between atoms: _321  and  _322
REMARK  133  A    between atoms: _321  and  _324
REMARK  134  A    between atoms: _324  and  _325
REMARK  135  A    between atoms: _328  and  _330
REMARK  136  A    between atoms: _330  and  _331
REMARK  137  A    between atoms: _330  and  _333
REMARK  138  A    between atoms: _333  and  _334
REMARK  139  A    between atoms: _337  and  _339
REMARK  140  A    between atoms: _339  and  _340
REMARK  141  A    between atoms: _339  and  _342
REMARK  142  A    between atoms: _342  and  _343
REMARK  143  A    between atoms: _346  and  _348
REMARK  144  A    between atoms: _348  and  _349
REMARK  145  A    between atoms: _351  and  _353
REMARK  146  A    between atoms: _353  and  _354
REMARK  147  A    between atoms: _357  and  _359
REMARK  148  A    between atoms: _359  and  _360
REMARK  149  A    between atoms: _359  and  _362
REMARK  150  A    between atoms: _362  and  _363
REMARK  151  A    between atoms: _366  and  _368
REMARK  152  A    between atoms: _368  and  _369
REMARK  153  A    between atoms: _368  and  _371
REMARK  154  A    between atoms: _371  and  _372
REMARK  155  A    between atoms: _375  and  _377
REMARK  156  A    between atoms: _377  and  _378
REMARK  157  A    between atoms: _377  and  _380
REMARK  158  A    between atoms: _380  and  _381
REMARK  159  A    between atoms: _384  and  _386
REMARK  160  A    between atoms: _386  and  _387
REMARK  161  A    between atoms: _386  and  _389
REMARK  162  A    between atoms: _392  and  _394
REMARK  163  A    between atoms: _394  and  _395
REMARK  164  A    between atoms: _394  and  _397
REMARK  165  A    between atoms: _397  and  _398
REMARK  166  A    between atoms: _398  and  _399
REMARK  167  A    between atoms: _399  and  _400
REMARK  168  A    between atoms: _400  and  _401
REMARK  169  A    between atoms: _405  and  _407
REMARK  170  A    between atoms: _407  and  _408
REMARK  171  A    between atoms: _407  and  _410
REMARK  172  A    between atoms: _410  and  _411
REMARK  173  A    between atoms: _411  and  _412
REMARK  174  A    between atoms: _414  and  _416
REMARK  175  A    between atoms: _416  and  _417
REMARK  176  A    between atoms: _416  and  _419
REMARK  177  A    between atoms: _419  and  _420
REMARK  178  A    between atoms: _423  and  _425
REMARK  179  A    between atoms: _425  and  _426
REMARK  180  A    between atoms: _428  and  _430
REMARK  181  A    between atoms: _430  and  _431
REMARK  182  A    between atoms: _433  and  _435
REMARK  183  A    between atoms: _435  and  _436
REMARK  184  A    between atoms: _435  and  _438
REMARK  185  A    between atoms: _438  and  _439
REMARK  186  A    between atoms: _442  and  _444
REMARK  187  A    between atoms: _444  and  _445
REMARK  188  A    between atoms: _447  and  _449
REMARK  189  A    between atoms: _449  and  _450
REMARK  190  A    between atoms: _452  and  _454
REMARK  191  A    between atoms: _454  and  _455
REMARK  192  A    between atoms: _454  and  _457
REMARK  193  A    between atoms: _457  and  _458
REMARK  194  A    between atoms: _464  and  _466
REMARK  195  A    between atoms: _466  and  _467
REMARK  196  A    between atoms: _466  and  _469
REMARK  197  A    between atoms: _469  and  _470
REMARK  198  A    between atoms: _473  and  _475
REMARK  199  A    between atoms: _475  and  _476
REMARK  200  A    between atoms: _475  and  _478
REMARK  201  A    between atoms: _481  and  _483
REMARK  202  A    between atoms: _483  and  _484
REMARK  203  A    between atoms: _483  and  _486
REMARK  204  A    between atoms: _486  and  _487
REMARK  205  A    between atoms: _491  and  _492
REMARK  206  A    between atoms: _497  and  _499
REMARK  207  A    between atoms: _499  and  _500
REMARK  208  A    between atoms: _499  and  _502
REMARK  209  A    between atoms: _502  and  _503
REMARK  210  A    between atoms: _507  and  _508
REMARK  211  A    between atoms: _513  and  _515
REMARK  212  A    between atoms: _515  and  _516
REMARK  213  A    between atoms: _515  and  _518
REMARK  214  A    between atoms: _521  and  _523
REMARK  215  A    between atoms: _523  and  _524
REMARK  216  A    between atoms: _523  and  _526
REMARK  217  A    between atoms: _526  and  _527
REMARK  218  A    between atoms: _532  and  _534
REMARK  219  A    between atoms: _534  and  _535
REMARK  220  A    between atoms: _534  and  _537
REMARK  221  A    between atoms: _537  and  _538
REMARK  222  A    between atoms: _541  and  _543
REMARK  223  A    between atoms: _543  and  _544
REMARK  224  A    between atoms: _543  and  _546
REMARK  225  A    between atoms: _546  and  _547
REMARK  226  A    between atoms: _550  and  _552
REMARK  227  A    between atoms: _552  and  _553
REMARK  228  A    between atoms: _555  and  _557
REMARK  229  A    between atoms: _557  and  _558
REMARK  230  A    between atoms: _557  and  _560
REMARK  231  A    between atoms: _560  and  _561
REMARK  232  A    between atoms: _561  and  _562
REMARK  233  A    between atoms: _562  and  _563
REMARK  234  A    between atoms: _572  and  _574
REMARK  235  A    between atoms: _574  and  _575
REMARK  236  A    between atoms: _574  and  _577
REMARK  237  A    between atoms: _577  and  _578
REMARK                            x       y       z     vdW  Elec       q    Type
REMARK                         _______ _______ _______ _____ _____    ______ ____
ROOT
ATOM      1  O   HOH     1       1.909 -20.208 -23.900  0.00  0.00    +0.000 OA
ENDROOT
TORSDOF 0
REMARK  Name = ../refined-set-2016/2pwr/2pwr_pocket.pdb
REMARK  237 active torsions:
REMARK  status: ('A' for Active; 'I' for Inactive)
REMARK    1  A    between atoms: _1  and  _3
REMARK    2  A    between atoms: _3  and  _4
REMARK    3  A    between atoms: _3  and  _6
REMARK    4  A    between atoms: _6  and  _7
REMARK    5  A    between atoms: _7  and  _8
REMARK    6  A    between atoms: _8  and  _9
REMARK    7  A    between atoms: _18  and  _20
REMARK    8  A    between atoms: _20  and  _21
REMARK    9  A    between atoms: _20  and  _23
REMARK   10  A    between atoms: _23  and  _24
REMARK   11  A    between atoms: _27  and  _29
REMARK   12  A    between atoms: _29  and  _30
REMARK   13  A    between atoms: _29  and  _32
REMARK   14  A    between atoms: _32  and  _33
REMARK   15  A    between atoms: _36  and  _38
REMARK   16  A    between atoms: _38  and  _39
REMARK   17  A    between atoms: _38  and  _41
REMARK   18  A    between atoms: _41  and  _42
REMARK   19  A    between atoms: _45  and  _47
REMARK   20  A    between atoms: _47  and  _48
REMARK   21  A    between atoms: _47  and  _50
REMARK   22  A    between atoms: _50  and  _51
REMARK   23  A    between atoms: _54  and  _56
REMARK   24  A    between atoms: _56  and  _57
REMARK   25  A    between atoms: _59  and  _61
REMARK   26  A    between atoms: _61  and  _62
REMARK   27  A    between atoms: _65  and  _67
REMARK   28  A    between atoms: _67  and  _68
REMARK   29  A    between atoms: _67  and  _70
REMARK   30  A    between atoms: _70  and  _71
REMARK   31  A    between atoms: _74  and  _76
REMARK   32  A    between atoms: _76  and  _77
REMARK   33  A    between atoms: _76  and  _79
REMARK   34  A    between atoms: _79  and  _80
REMARK   35  A    between atoms: _83  and  _85
REMARK   36  A    between atoms: _85  and  _86
REMARK   37  A    between atoms: _85  and  _88
REMARK   38  A    between atoms: _88  and  _89
REMARK   39  A    between atoms: _92  and  _94
REMARK   40  A    between atoms: _94  and  _95
REMARK   41  A    between atoms: _94  and  _97
REMARK   42  A    between atoms: _100  and  _102
REMARK   43  A    between atoms: _102  and  _103
REMARK   44  A    between atoms: _102  and  _105
REMARK   45  A    between atoms: _105  and  _106
REMARK   46  A    between atoms: _106  and  _107
REMARK   47  A    between atoms: _107  and  _108
REMARK   48  A    between atoms: _108  and  _109
REMARK   49  A    between atoms: _113  and  _115
REMARK   50  A    between atoms: _115  and  _116
REMARK   51  A    between atoms: _115  and  _118
REMARK   52  A    between atoms: _118  and  _119
REMARK   53  A    between atoms: _119  and  _120
REMARK   54  A    between atoms: _122  and  _124
REMARK   55  A    between atoms: _124  and  _125
REMARK   56  A    between atoms: _124  and  _127
REMARK   57  A    between atoms: _127  and  _128
REMARK   58  A    between atoms: _131  and  _133
REMARK   59  A    between atoms: _133  and  _134
REMARK   60  A    between atoms: _136  and  _138
REMARK   61  A    between atoms: _138  and  _139
REMARK   62  A    between atoms: _141  and  _143
REMARK   63  A    between atoms: _143  and  _144
REMARK   64  A    between atoms: _143  and  _146
REMARK   65  A    between atoms: _146  and  _147
REMARK   66  A    between atoms: _150  and  _152
REMARK   67  A    between atoms: _152  and  _153
REMARK   68  A    between atoms: _155  and  _157
REMARK   69  A    between atoms: _157  and  _158
REMARK   70  A    between atoms: _160  and  _162
REMARK   71  A    between atoms: _162  and  _163
REMARK   72  A    between atoms: _162  and  _165
REMARK   73  A    between atoms: _165  and  _166
REMARK   74  A    between atoms: _172  and  _174
REMARK   75  A    between atoms: _174  and  _175
REMARK   76  A    between atoms: _174  and  _177
REMARK   77  A    between atoms: _177  and  _178
REMARK   78  A    between atoms: _181  and  _183
REMARK   79  A    between atoms: _183  and  _184
REMARK   80  A    between atoms: _183  and  _186
REMARK   81  A    between atoms: _189  and  _191
REMARK   82  A    between atoms: _191  and  _192
REMARK   83  A    between atoms: _191  and  _194
REMARK   84  A    between atoms: _194  and  _195
REMARK   85  A    between atoms: _198  and  _200
REMARK   86  A    between atoms: _200  and  _201
REMARK   87  A    between atoms: _200  and  _203
REMARK   88  A    between atoms: _203  and  _204
REMARK   89  A    between atoms: _208  and  _209
REMARK   90  A    between atoms: _214  and  _216
REMARK   91  A    between atoms: _216  and  _217
REMARK   92  A    between atoms: _216  and  _219
REMARK   93  A    between atoms: _222  and  _224
REMARK   94  A    between atoms: _224  and  _225
REMARK   95  A    between atoms: _224  and  _227
REMARK   96  A    between atoms: _227  and  _228
REMARK   97  A    between atoms: _233  and  _235
REMARK   98  A    between atoms: _235  and  _236
REMARK   99  A    between atoms: _235  and  _238
REMARK  100  A    between atoms: _238  and  _239
REMARK  101  A    between atoms: _242  and  _244
REMARK  102  A    between atoms: _244  and  _245
REMARK  103  A    between atoms: _244  and  _247
REMARK  104  A    between atoms: _247  and  _248
REMARK  105  A    between atoms: _251  and  _253
REMARK  106  A    between atoms: _253  and  _254
REMARK  107  A    between atoms: _256  and  _258
REMARK  108  A    between atoms: _258  and  _259
REMARK  109  A    between atoms: _258  and  _261
REMARK  110  A    between atoms: _261  and  _262
REMARK  111  A    between atoms: _262  and  _263
REMARK  112  A    between atoms: _263  and  _264
REMARK  113  A    between atoms: _273  and  _275
REMARK  114  A    between atoms: _275  and  _276
REMARK  115  A    between atoms: _275  and  _278
REMARK  116  A    between atoms: _278  and  _279
REMARK  117  A    between atoms: _284  and  _286
REMARK  118  A    between atoms: _286  and  _287
REMARK  119  A    between atoms: _286  and  _289
REMARK  120  A    between atoms: _289  and  _290
REMARK  121  A    between atoms: _290  and  _291
REMARK  122  A    between atoms: _291  and  _292
REMARK  123  A    between atoms: _301  and  _303
REMARK  124  A    between atoms: _303  and  _304
REMARK  125  A    between atoms: _303  and  _306
REMARK  126  A    between atoms: _306  and  _307
REMARK  127  A    between atoms: _310  and  _312
REMARK  128  A    between atoms: _312  and  _313
REMARK  129  A    between atoms: _312  and  _315
REMARK  130  A    between atoms: _315  and  _316
REMARK  131  A    between atoms: _319  and  _321
REMARK  132  A    between atoms: _321  and  _322
REMARK  133  A    between atoms: _321  and  _324
REMARK  134  A    between atoms: _324  and  _325
REMARK  135  A    between atoms: _328  and  _330
REMARK  136  A    between atoms: _330  and  _331
REMARK  137  A    between atoms: _330  and  _333
REMARK  138  A    between atoms: _333  and  _334
REMARK  139  A    between atoms: _337  and  _339
REMARK  140  A    between atoms: _339  and  _340
REMARK  141  A    between atoms: _339  and  _342
REMARK  142  A    between atoms: _342  and  _343
REMARK  143  A    between atoms: _346  and  _348
REMARK  144  A    between atoms: _348  and  _349
REMARK  145  A    between atoms: _351  and  _353
REMARK  146  A    between atoms: _353  and  _354
REMARK  147  A    between atoms: _357  and  _359
REMARK  148  A    between atoms: _359  and  _360
REMARK  149  A    between atoms: _359  and  _362
REMARK  150  A    between atoms: _362  and  _363
REMARK  151  A    between atoms: _366  and  _368
REMARK  152  A    between atoms: _368  and  _369
REMARK  153  A    between atoms: _368  and  _371
REMARK  154  A    between atoms: _371  and  _372
REMARK  155  A    between atoms: _375  and  _377
REMARK  156  A    between atoms: _377  and  _378
REMARK  157  A    between atoms: _377  and  _380
REMARK  158  A    between atoms: _380  and  _381
REMARK  159  A    between atoms: _384  and  _386
REMARK  160  A    between atoms: _386  and  _387
REMARK  161  A    between atoms: _386  and  _389
REMARK  162  A    between atoms: _392  and  _394
REMARK  163  A    between atoms: _394  and  _395
REMARK  164  A    between atoms: _394  and  _397
REMARK  165  A    between atoms: _397  and  _398
REMARK  166  A    between atoms: _398  and  _399
REMARK  167  A    between atoms: _399  and  _400
REMARK  168  A    between atoms: _400  and  _401
REMARK  169  A    between atoms: _405  and  _407
REMARK  170  A    between atoms: _407  and  _408
REMARK  171  A    between atoms: _407  and  _410
REMARK  172  A    between atoms: _410  and  _411
REMARK  173  A    between atoms: _411  and  _412
REMARK  174  A    between atoms: _414  and  _416
REMARK  175  A    between atoms: _416  and  _417
REMARK  176  A    between atoms: _416  and  _419
REMARK  177  A    between atoms: _419  and  _420
REMARK  178  A    between atoms: _423  and  _425
REMARK  179  A    between atoms: _425  and  _426
REMARK  180  A    between atoms: _428  and  _430
REMARK  181  A    between atoms: _430  and  _431
REMARK  182  A    between atoms: _433  and  _435
REMARK  183  A    between atoms: _435  and  _436
REMARK  184  A    between atoms: _435  and  _438
REMARK  185  A    between atoms: _438  and  _439
REMARK  186  A    between atoms: _442  and  _444
REMARK  187  A    between atoms: _444  and  _445
REMARK  188  A    between atoms: _447  and  _449
REMARK  189  A    between atoms: _449  and  _450
REMARK  190  A    between atoms: _452  and  _454
REMARK  191  A    between atoms: _454  and  _455
REMARK  192  A    between atoms: _454  and  _457
REMARK  193  A    between atoms: _457  and  _458
REMARK  194  A    between atoms: _464  and  _466
REMARK  195  A    between atoms: _466  and  _467
REMARK  196  A    between atoms: _466  and  _469
REMARK  197  A    between atoms: _469  and  _470
REMARK  198  A    between atoms: _473  and  _475
REMARK  199  A    between atoms: _475  and  _476
REMARK  200  A    between atoms: _475  and  _478
REMARK  201  A    between atoms: _481  and  _483
REMARK  202  A    between atoms: _483  and  _484
REMARK  203  A    between atoms: _483  and  _486
REMARK  204  A    between atoms: _486  and  _487
REMARK  205  A    between atoms: _491  and  _492
REMARK  206  A    between atoms: _497  and  _499
REMARK  207  A    between atoms: _499  and  _500
REMARK  208  A    between atoms: _499  and  _502
REMARK  209  A    between atoms: _502  and  _503
REMARK  210  A    between atoms: _507  and  _508
REMARK  211  A    between atoms: _513  and  _515
REMARK  212  A    between atoms: _515  and  _516
REMARK  213  A    between atoms: _515  and  _518
REMARK  214  A    between atoms: _521  and  _523
REMARK  215  A    between atoms: _523  and  _524
REMARK  216  A    between atoms: _523  and  _526
REMARK  217  A    between atoms: _526  and  _527
REMARK  218  A    between atoms: _532  and  _534
REMARK  219  A    between atoms: _534  and  _535
REMARK  220  A    between atoms: _534  and  _537
REMARK  221  A    between atoms: _537  and  _538
REMARK  222  A    between atoms: _541  and  _543
REMARK  223  A    between atoms: _543  and  _544
REMARK  224  A    between atoms: _543  and  _546
REMARK  225  A    between atoms: _546  and  _547
REMARK  226  A    between atoms: _550  and  _552
REMARK  227  A    between atoms: _552  and  _553
REMARK  228  A    between atoms: _555  and  _557
REMARK  229  A    between atoms: _557  and  _558
REMARK  230  A    between atoms: _557  and  _560
REMARK  231  A    between atoms: _560  and  _561
REMARK  232  A    between atoms: _561  and  _562
REMARK  233  A    between atoms: _562  and  _563
REMARK  234  A    between atoms: _572  and  _574
REMARK  235  A    between atoms: _574  and  _575
REMARK  236  A    between atoms: _574  and  _577
REMARK  237  A    between atoms: _577  and  _578
REMARK                            x       y       z     vdW  Elec       q    Type
REMARK                         _______ _______ _______ _____ _____    ______ ____
ROOT
ATOM      1  O   HOH     1       5.096 -12.188 -13.769  0.00  0.00    +0.000 OA
ENDROOT
TORSDOF 0
REMARK  Name = ../refined-set-2016/2pwr/2pwr_pocket.pdb
REMARK  237 active torsions:
REMARK  status: ('A' for Active; 'I' for Inactive)
REMARK    1  A    between atoms: _1  and  _3
REMARK    2  A    between atoms: _3  and  _4
REMARK    3  A    between atoms: _3  and  _6
REMARK    4  A    between atoms: _6  and  _7
REMARK    5  A    between atoms: _7  and  _8
REMARK    6  A    between atoms: _8  and  _9
REMARK    7  A    between atoms: _18  and  _20
REMARK    8  A    between atoms: _20  and  _21
REMARK    9  A    between atoms: _20  and  _23
REMARK   10  A    between atoms: _23  and  _24
REMARK   11  A    between atoms: _27  and  _29
REMARK   12  A    between atoms: _29  and  _30
REMARK   13  A    between atoms: _29  and  _32
REMARK   14  A    between atoms: _32  and  _33
REMARK   15  A    between atoms: _36  and  _38
REMARK   16  A    between atoms: _38  and  _39
REMARK   17  A    between atoms: _38  and  _41
REMARK   18  A    between atoms: _41  and  _42
REMARK   19  A    between atoms: _45  and  _47
REMARK   20  A    between atoms: _47  and  _48
REMARK   21  A    between atoms: _47  and  _50
REMARK   22  A    between atoms: _50  and  _51
REMARK   23  A    between atoms: _54  and  _56
REMARK   24  A    between atoms: _56  and  _57
REMARK   25  A    between atoms: _59  and  _61
REMARK   26  A    between atoms: _61  and  _62
REMARK   27  A    between atoms: _65  and  _67
REMARK   28  A    between atoms: _67  and  _68
REMARK   29  A    between atoms: _67  and  _70
REMARK   30  A    between atoms: _70  and  _71
REMARK   31  A    between atoms: _74  and  _76
REMARK   32  A    between atoms: _76  and  _77
REMARK   33  A    between atoms: _76  and  _79
REMARK   34  A    between atoms: _79  and  _80
REMARK   35  A    between atoms: _83  and  _85
REMARK   36  A    between atoms: _85  and  _86
REMARK   37  A    between atoms: _85  and  _88
REMARK   38  A    between atoms: _88  and  _89
REMARK   39  A    between atoms: _92  and  _94
REMARK   40  A    between atoms: _94  and  _95
REMARK   41  A    between atoms: _94  and  _97
REMARK   42  A    between atoms: _100  and  _102
REMARK   43  A    between atoms: _102  and  _103
REMARK   44  A    between atoms: _102  and  _105
REMARK   45  A    between atoms: _105  and  _106
REMARK   46  A    between atoms: _106  and  _107
REMARK   47  A    between atoms: _107  and  _108
REMARK   48  A    between atoms: _108  and  _109
REMARK   49  A    between atoms: _113  and  _115
REMARK   50  A    between atoms: _115  and  _116
REMARK   51  A    between atoms: _115  and  _118
REMARK   52  A    between atoms: _118  and  _119
REMARK   53  A    between atoms: _119  and  _120
REMARK   54  A    between atoms: _122  and  _124
REMARK   55  A    between atoms: _124  and  _125
REMARK   56  A    between atoms: _124  and  _127
REMARK   57  A    between atoms: _127  and  _128
REMARK   58  A    between atoms: _131  and  _133
REMARK   59  A    between atoms: _133  and  _134
REMARK   60  A    between atoms: _136  and  _138
REMARK   61  A    between atoms: _138  and  _139
REMARK   62  A    between atoms: _141  and  _143
REMARK   63  A    between atoms: _143  and  _144
REMARK   64  A    between atoms: _143  and  _146
REMARK   65  A    between atoms: _146  and  _147
REMARK   66  A    between atoms: _150  and  _152
REMARK   67  A    between atoms: _152  and  _153
REMARK   68  A    between atoms: _155  and  _157
REMARK   69  A    between atoms: _157  and  _158
REMARK   70  A    between atoms: _160  and  _162
REMARK   71  A    between atoms: _162  and  _163
REMARK   72  A    between atoms: _162  and  _165
REMARK   73  A    between atoms: _165  and  _166
REMARK   74  A    between atoms: _172  and  _174
REMARK   75  A    between atoms: _174  and  _175
REMARK   76  A    between atoms: _174  and  _177
REMARK   77  A    between atoms: _177  and  _178
REMARK   78  A    between atoms: _181  and  _183
REMARK   79  A    between atoms: _183  and  _184
REMARK   80  A    between atoms: _183  and  _186
REMARK   81  A    between atoms: _189  and  _191
REMARK   82  A    between atoms: _191  and  _192
REMARK   83  A    between atoms: _191  and  _194
REMARK   84  A    between atoms: _194  and  _195
REMARK   85  A    between atoms: _198  and  _200
REMARK   86  A    between atoms: _200  and  _201
REMARK   87  A    between atoms: _200  and  _203
REMARK   88  A    between atoms: _203  and  _204
REMARK   89  A    between atoms: _208  and  _209
REMARK   90  A    between atoms: _214  and  _216
REMARK   91  A    between atoms: _216  and  _217
REMARK   92  A    between atoms: _216  and  _219
REMARK   93  A    between atoms: _222  and  _224
REMARK   94  A    between atoms: _224  and  _225
REMARK   95  A    between atoms: _224  and  _227
REMARK   96  A    between atoms: _227  and  _228
REMARK   97  A    between atoms: _233  and  _235
REMARK   98  A    between atoms: _235  and  _236
REMARK   99  A    between atoms: _235  and  _238
REMARK  100  A    between atoms: _238  and  _239
REMARK  101  A    between atoms: _242  and  _244
REMARK  102  A    between atoms: _244  and  _245
REMARK  103  A    between atoms: _244  and  _247
REMARK  104  A    between atoms: _247  and  _248
REMARK  105  A    between atoms: _251  and  _253
REMARK  106  A    between atoms: _253  and  _254
REMARK  107  A    between atoms: _256  and  _258
REMARK  108  A    between atoms: _258  and  _259
REMARK  109  A    between atoms: _258  and  _261
REMARK  110  A    between atoms: _261  and  _262
REMARK  111  A    between atoms: _262  and  _263
REMARK  112  A    between atoms: _263  and  _264
REMARK  113  A    between atoms: _273  and  _275
REMARK  114  A    between atoms: _275  and  _276
REMARK  115  A    between atoms: _275  and  _278
REMARK  116  A    between atoms: _278  and  _279
REMARK  117  A    between atoms: _284  and  _286
REMARK  118  A    between atoms: _286  and  _287
REMARK  119  A    between atoms: _286  and  _289
REMARK  120  A    between atoms: _289  and  _290
REMARK  121  A    between atoms: _290  and  _291
REMARK  122  A    between atoms: _291  and  _292
REMARK  123  A    between atoms: _301  and  _303
REMARK  124  A    between atoms: _303  and  _304
REMARK  125  A    between atoms: _303  and  _306
REMARK  126  A    between atoms: _306  and  _307
REMARK  127  A    between atoms: _310  and  _312
REMARK  128  A    between atoms: _312  and  _313
REMARK  129  A    between atoms: _312  and  _315
REMARK  130  A    between atoms: _315  and  _316
REMARK  131  A    between atoms: _319  and  _321
REMARK  132  A    between atoms: _321  and  _322
REMARK  133  A    between atoms: _321  and  _324
REMARK  134  A    between atoms: _324  and  _325
REMARK  135  A    between atoms: _328  and  _330
REMARK  136  A    between atoms: _330  and  _331
REMARK  137  A    between atoms: _330  and  _333
REMARK  138  A    between atoms: _333  and  _334
REMARK  139  A    between atoms: _337  and  _339
REMARK  140  A    between atoms: _339  and  _340
REMARK  141  A    between atoms: _339  and  _342
REMARK  142  A    between atoms: _342  and  _343
REMARK  143  A    between atoms: _346  and  _348
REMARK  144  A    between atoms: _348  and  _349
REMARK  145  A    between atoms: _351  and  _353
REMARK  146  A    between atoms: _353  and  _354
REMARK  147  A    between atoms: _357  and  _359
REMARK  148  A    between atoms: _359  and  _360
REMARK  149  A    between atoms: _359  and  _362
REMARK  150  A    between atoms: _362  and  _363
REMARK  151  A    between atoms: _366  and  _368
REMARK  152  A    between atoms: _368  and  _369
REMARK  153  A    between atoms: _368  and  _371
REMARK  154  A    between atoms: _371  and  _372
REMARK  155  A    between atoms: _375  and  _377
REMARK  156  A    between atoms: _377  and  _378
REMARK  157  A    between atoms: _377  and  _380
REMARK  158  A    between atoms: _380  and  _381
REMARK  159  A    between atoms: _384  and  _386
REMARK  160  A    between atoms: _386  and  _387
REMARK  161  A    between atoms: _386  and  _389
REMARK  162  A    between atoms: _392  and  _394
REMARK  163  A    between atoms: _394  and  _395
REMARK  164  A    between atoms: _394  and  _397
REMARK  165  A    between atoms: _397  and  _398
REMARK  166  A    between atoms: _398  and  _399
REMARK  167  A    between atoms: _399  and  _400
REMARK  168  A    between atoms: _400  and  _401
REMARK  169  A    between atoms: _405  and  _407
REMARK  170  A    between atoms: _407  and  _408
REMARK  171  A    between atoms: _407  and  _410
REMARK  172  A    between atoms: _410  and  _411
REMARK  173  A    between atoms: _411  and  _412
REMARK  174  A    between atoms: _414  and  _416
REMARK  175  A    between atoms: _416  and  _417
REMARK  176  A    between atoms: _416  and  _419
REMARK  177  A    between atoms: _419  and  _420
REMARK  178  A    between atoms: _423  and  _425
REMARK  179  A    between atoms: _425  and  _426
REMARK  180  A    between atoms: _428  and  _430
REMARK  181  A    between atoms: _430  and  _431
REMARK  182  A    between atoms: _433  and  _435
REMARK  183  A    between atoms: _435  and  _436
REMARK  184  A    between atoms: _435  and  _438
REMARK  185  A    between atoms: _438  and  _439
REMARK  186  A    between atoms: _442  and  _444
REMARK  187  A    between atoms: _444  and  _445
REMARK  188  A    between atoms: _447  and  _449
REMARK  189  A    between atoms: _449  and  _450
REMARK  190  A    between atoms: _452  and  _454
REMARK  191  A    between atoms: _454  and  _455
REMARK  192  A    between atoms: _454  and  _457
REMARK  193  A    between atoms: _457  and  _458
REMARK  194  A    between atoms: _464  and  _466
REMARK  195  A    between atoms: _466  and  _467
REMARK  196  A    between atoms: _466  and  _469
REMARK  197  A    between atoms: _469  and  _470
REMARK  198  A    between atoms: _473  and  _475
REMARK  199  A    between atoms: _475  and  _476
REMARK  200  A    between atoms: _475  and  _478
REMARK  201  A    between atoms: _481  and  _483
REMARK  202  A    between atoms: _483  and  _484
REMARK  203  A    between atoms: _483  and  _486
REMARK  204  A    between atoms: _486  and  _487
REMARK  205  A    between atoms: _491  and  _492
REMARK  206  A    between atoms: _497  and  _499
REMARK  207  A    between atoms: _499  and  _500
REMARK  208  A    between atoms: _499  and  _502
REMARK  209  A    between atoms: _502  and  _503
REMARK  210  A    between atoms: _507  and  _508
REMARK  211  A    between atoms: _513  and  _515
REMARK  212  A    between atoms: _515  and  _516
REMARK  213  A    between atoms: _515  and  _518
REMARK  214  A    between atoms: _521  and  _523
REMARK  215  A    between atoms: _523  and  _524
REMARK  216  A    between atoms: _523  and  _526
REMARK  217  A    between atoms: _526  and  _527
REMARK  218  A    between atoms: _532  and  _534
REMARK  219  A    between atoms: _534  and  _535
REMARK  220  A    between atoms: _534  and  _537
REMARK  221  A    between atoms: _537  and  _538
REMARK  222  A    between atoms: _541  and  _543
REMARK  223  A    between atoms: _543  and  _544
REMARK  224  A    between atoms: _543  and  _546
REMARK  225  A    between atoms: _546  and  _547
REMARK  226  A    between atoms: _550  and  _552
REMARK  227  A    between atoms: _552  and  _553
REMARK  228  A    between atoms: _555  and  _557
REMARK  229  A    between atoms: _557  and  _558
REMARK  230  A    between atoms: _557  and  _560
REMARK  231  A    between atoms: _560  and  _561
REMARK  232  A    between atoms: _561  and  _562
REMARK  233  A    between atoms: _562  and  _563
REMARK  234  A    between atoms: _572  and  _574
REMARK  235  A    between atoms: _574  and  _575
REMARK  236  A    between atoms: _574  and  _577
REMARK  237  A    between atoms: _577  and  _578
REMARK                            x       y       z     vdW  Elec       q    Type
REMARK                         _______ _______ _______ _____ _____    ______ ____
ROOT
ATOM      1  O   HOH     1      13.435 -27.959  -9.700  0.00  0.00    +0.000 OA
ENDROOT
TORSDOF 0
REMARK  Name = ../refined-set-2016/2pwr/2pwr_pocket.pdb
REMARK  237 active torsions:
REMARK  status: ('A' for Active; 'I' for Inactive)
REMARK    1  A    between atoms: _1  and  _3
REMARK    2  A    between atoms: _3  and  _4
REMARK    3  A    between atoms: _3  and  _6
REMARK    4  A    between atoms: _6  and  _7
REMARK    5  A    between atoms: _7  and  _8
REMARK    6  A    between atoms: _8  and  _9
REMARK    7  A    between atoms: _18  and  _20
REMARK    8  A    between atoms: _20  and  _21
REMARK    9  A    between atoms: _20  and  _23
REMARK   10  A    between atoms: _23  and  _24
REMARK   11  A    between atoms: _27  and  _29
REMARK   12  A    between atoms: _29  and  _30
REMARK   13  A    between atoms: _29  and  _32
REMARK   14  A    between atoms: _32  and  _33
REMARK   15  A    between atoms: _36  and  _38
REMARK   16  A    between atoms: _38  and  _39
REMARK   17  A    between atoms: _38  and  _41
REMARK   18  A    between atoms: _41  and  _42
REMARK   19  A    between atoms: _45  and  _47
REMARK   20  A    between atoms: _47  and  _48
REMARK   21  A    between atoms: _47  and  _50
REMARK   22  A    between atoms: _50  and  _51
REMARK   23  A    between atoms: _54  and  _56
REMARK   24  A    between atoms: _56  and  _57
REMARK   25  A    between atoms: _59  and  _61
REMARK   26  A    between atoms: _61  and  _62
REMARK   27  A    between atoms: _65  and  _67
REMARK   28  A    between atoms: _67  and  _68
REMARK   29  A    between atoms: _67  and  _70
REMARK   30  A    between atoms: _70  and  _71
REMARK   31  A    between atoms: _74  and  _76
REMARK   32  A    between atoms: _76  and  _77
REMARK   33  A    between atoms: _76  and  _79
REMARK   34  A    between atoms: _79  and  _80
REMARK   35  A    between atoms: _83  and  _85
REMARK   36  A    between atoms: _85  and  _86
REMARK   37  A    between atoms: _85  and  _88
REMARK   38  A    between atoms: _88  and  _89
REMARK   39  A    between atoms: _92  and  _94
REMARK   40  A    between atoms: _94  and  _95
REMARK   41  A    between atoms: _94  and  _97
REMARK   42  A    between atoms: _100  and  _102
REMARK   43  A    between atoms: _102  and  _103
REMARK   44  A    between atoms: _102  and  _105
REMARK   45  A    between atoms: _105  and  _106
REMARK   46  A    between atoms: _106  and  _107
REMARK   47  A    between atoms: _107  and  _108
REMARK   48  A    between atoms: _108  and  _109
REMARK   49  A    between atoms: _113  and  _115
REMARK   50  A    between atoms: _115  and  _116
REMARK   51  A    between atoms: _115  and  _118
REMARK   52  A    between atoms: _118  and  _119
REMARK   53  A    between atoms: _119  and  _120
REMARK   54  A    between atoms: _122  and  _124
REMARK   55  A    between atoms: _124  and  _125
REMARK   56  A    between atoms: _124  and  _127
REMARK   57  A    between atoms: _127  and  _128
REMARK   58  A    between atoms: _131  and  _133
REMARK   59  A    between atoms: _133  and  _134
REMARK   60  A    between atoms: _136  and  _138
REMARK   61  A    between atoms: _138  and  _139
REMARK   62  A    between atoms: _141  and  _143
REMARK   63  A    between atoms: _143  and  _144
REMARK   64  A    between atoms: _143  and  _146
REMARK   65  A    between atoms: _146  and  _147
REMARK   66  A    between atoms: _150  and  _152
REMARK   67  A    between atoms: _152  and  _153
REMARK   68  A    between atoms: _155  and  _157
REMARK   69  A    between atoms: _157  and  _158
REMARK   70  A    between atoms: _160  and  _162
REMARK   71  A    between atoms: _162  and  _163
REMARK   72  A    between atoms: _162  and  _165
REMARK   73  A    between atoms: _165  and  _166
REMARK   74  A    between atoms: _172  and  _174
REMARK   75  A    between atoms: _174  and  _175
REMARK   76  A    between atoms: _174  and  _177
REMARK   77  A    between atoms: _177  and  _178
REMARK   78  A    between atoms: _181  and  _183
REMARK   79  A    between atoms: _183  and  _184
REMARK   80  A    between atoms: _183  and  _186
REMARK   81  A    between atoms: _189  and  _191
REMARK   82  A    between atoms: _191  and  _192
REMARK   83  A    between atoms: _191  and  _194
REMARK   84  A    between atoms: _194  and  _195
REMARK   85  A    between atoms: _198  and  _200
REMARK   86  A    between atoms: _200  and  _201
REMARK   87  A    between atoms: _200  and  _203
REMARK   88  A    between atoms: _203  and  _204
REMARK   89  A    between atoms: _208  and  _209
REMARK   90  A    between atoms: _214  and  _216
REMARK   91  A    between atoms: _216  and  _217
REMARK   92  A    between atoms: _216  and  _219
REMARK   93  A    between atoms: _222  and  _224
REMARK   94  A    between atoms: _224  and  _225
REMARK   95  A    between atoms: _224  and  _227
REMARK   96  A    between atoms: _227  and  _228
REMARK   97  A    between atoms: _233  and  _235
REMARK   98  A    between atoms: _235  and  _236
REMARK   99  A    between atoms: _235  and  _238
REMARK  100  A    between atoms: _238  and  _239
REMARK  101  A    between atoms: _242  and  _244
REMARK  102  A    between atoms: _244  and  _245
REMARK  103  A    between atoms: _244  and  _247
REMARK  104  A    between atoms: _247  and  _248
REMARK  105  A    between atoms: _251  and  _253
REMARK  106  A    between atoms: _253  and  _254
REMARK  107  A    between atoms: _256  and  _258
REMARK  108  A    between atoms: _258  and  _259
REMARK  109  A    between atoms: _258  and  _261
REMARK  110  A    between atoms: _261  and  _262
REMARK  111  A    between atoms: _262  and  _263
REMARK  112  A    between atoms: _263  and  _264
REMARK  113  A    between atoms: _273  and  _275
REMARK  114  A    between atoms: _275  and  _276
REMARK  115  A    between atoms: _275  and  _278
REMARK  116  A    between atoms: _278  and  _279
REMARK  117  A    between atoms: _284  and  _286
REMARK  118  A    between atoms: _286  and  _287
REMARK  119  A    between atoms: _286  and  _289
REMARK  120  A    between atoms: _289  and  _290
REMARK  121  A    between atoms: _290  and  _291
REMARK  122  A    between atoms: _291  and  _292
REMARK  123  A    between atoms: _301  and  _303
REMARK  124  A    between atoms: _303  and  _304
REMARK  125  A    between atoms: _303  and  _306
REMARK  126  A    between atoms: _306  and  _307
REMARK  127  A    between atoms: _310  and  _312
REMARK  128  A    between atoms: _312  and  _313
REMARK  129  A    between atoms: _312  and  _315
REMARK  130  A    between atoms: _315  and  _316
REMARK  131  A    between atoms: _319  and  _321
REMARK  132  A    between atoms: _321  and  _322
REMARK  133  A    between atoms: _321  and  _324
REMARK  134  A    between atoms: _324  and  _325
REMARK  135  A    between atoms: _328  and  _330
REMARK  136  A    between atoms: _330  and  _331
REMARK  137  A    between atoms: _330  and  _333
REMARK  138  A    between atoms: _333  and  _334
REMARK  139  A    between atoms: _337  and  _339
REMARK  140  A    between atoms: _339  and  _340
REMARK  141  A    between atoms: _339  and  _342
REMARK  142  A    between atoms: _342  and  _343
REMARK  143  A    between atoms: _346  and  _348
REMARK  144  A    between atoms: _348  and  _349
REMARK  145  A    between atoms: _351  and  _353
REMARK  146  A    between atoms: _353  and  _354
REMARK  147  A    between atoms: _357  and  _359
REMARK  148  A    between atoms: _359  and  _360
REMARK  149  A    between atoms: _359  and  _362
REMARK  150  A    between atoms: _362  and  _363
REMARK  151  A    between atoms: _366  and  _368
REMARK  152  A    between atoms: _368  and  _369
REMARK  153  A    between atoms: _368  and  _371
REMARK  154  A    between atoms: _371  and  _372
REMARK  155  A    between atoms: _375  and  _377
REMARK  156  A    between atoms: _377  and  _378
REMARK  157  A    between atoms: _377  and  _380
REMARK  158  A    between atoms: _380  and  _381
REMARK  159  A    between atoms: _384  and  _386
REMARK  160  A    between atoms: _386  and  _387
REMARK  161  A    between atoms: _386  and  _389
REMARK  162  A    between atoms: _392  and  _394
REMARK  163  A    between atoms: _394  and  _395
REMARK  164  A    between atoms: _394  and  _397
REMARK  165  A    between atoms: _397  and  _398
REMARK  166  A    between atoms: _398  and  _399
REMARK  167  A    between atoms: _399  and  _400
REMARK  168  A    between atoms: _400  and  _401
REMARK  169  A    between atoms: _405  and  _407
REMARK  170  A    between atoms: _407  and  _408
REMARK  171  A    between atoms: _407  and  _410
REMARK  172  A    between atoms: _410  and  _411
REMARK  173  A    between atoms: _411  and  _412
REMARK  174  A    between atoms: _414  and  _416
REMARK  175  A    between atoms: _416  and  _417
REMARK  176  A    between atoms: _416  and  _419
REMARK  177  A    between atoms: _419  and  _420
REMARK  178  A    between atoms: _423  and  _425
REMARK  179  A    between atoms: _425  and  _426
REMARK  180  A    between atoms: _428  and  _430
REMARK  181  A    between atoms: _430  and  _431
REMARK  182  A    between atoms: _433  and  _435
REMARK  183  A    between atoms: _435  and  _436
REMARK  184  A    between atoms: _435  and  _438
REMARK  185  A    between atoms: _438  and  _439
REMARK  186  A    between atoms: _442  and  _444
REMARK  187  A    between atoms: _444  and  _445
REMARK  188  A    between atoms: _447  and  _449
REMARK  189  A    between atoms: _449  and  _450
REMARK  190  A    between atoms: _452  and  _454
REMARK  191  A    between atoms: _454  and  _455
REMARK  192  A    between atoms: _454  and  _457
REMARK  193  A    between atoms: _457  and  _458
REMARK  194  A    between atoms: _464  and  _466
REMARK  195  A    between atoms: _466  and  _467
REMARK  196  A    between atoms: _466  and  _469
REMARK  197  A    between atoms: _469  and  _470
REMARK  198  A    between atoms: _473  and  _475
REMARK  199  A    between atoms: _475  and  _476
REMARK  200  A    between atoms: _475  and  _478
REMARK  201  A    between atoms: _481  and  _483
REMARK  202  A    between atoms: _483  and  _484
REMARK  203  A    between atoms: _483  and  _486
REMARK  204  A    between atoms: _486  and  _487
REMARK  205  A    between atoms: _491  and  _492
REMARK  206  A    between atoms: _497  and  _499
REMARK  207  A    between atoms: _499  and  _500
REMARK  208  A    between atoms: _499  and  _502
REMARK  209  A    between atoms: _502  and  _503
REMARK  210  A    between atoms: _507  and  _508
REMARK  211  A    between atoms: _513  and  _515
REMARK  212  A    between atoms: _515  and  _516
REMARK  213  A    between atoms: _515  and  _518
REMARK  214  A    between atoms: _521  and  _523
REMARK  215  A    between atoms: _523  and  _524
REMARK  216  A    between atoms: _523  and  _526
REMARK  217  A    between atoms: _526  and  _527
REMARK  218  A    between atoms: _532  and  _534
REMARK  219  A    between atoms: _534  and  _535
REMARK  220  A    between atoms: _534  and  _537
REMARK  221  A    between atoms: _537  and  _538
REMARK  222  A    between atoms: _541  and  _543
REMARK  223  A    between atoms: _543  and  _544
REMARK  224  A    between atoms: _543  and  _546
REMARK  225  A    between atoms: _546  and  _547
REMARK  226  A    between atoms: _550  and  _552
REMARK  227  A    between atoms: _552  and  _553
REMARK  228  A    between atoms: _555  and  _557
REMARK  229  A    between atoms: _557  and  _558
REMARK  230  A    between atoms: _557  and  _560
REMARK  231  A    between atoms: _560  and  _561
REMARK  232  A    between atoms: _561  and  _562
REMARK  233  A    between atoms: _562  and  _563
REMARK  234  A    between atoms: _572  and  _574
REMARK  235  A    between atoms: _574  and  _575
REMARK  236  A    between atoms: _574  and  _577
REMARK  237  A    between atoms: _577  and  _578
REMARK                            x       y       z     vdW  Elec       q    Type
REMARK                         _______ _______ _______ _____ _____    ______ ____
ROOT
ATOM      1  O   HOH     1       3.422 -17.645 -25.000  0.00  0.00    +0.000 OA
ENDROOT
TORSDOF 0
REMARK  Name = ../refined-set-2016/2pwr/2pwr_pocket.pdb
REMARK  237 active torsions:
REMARK  status: ('A' for Active; 'I' for Inactive)
REMARK    1  A    between atoms: _1  and  _3
REMARK    2  A    between atoms: _3  and  _4
REMARK    3  A    between atoms: _3  and  _6
REMARK    4  A    between atoms: _6  and  _7
REMARK    5  A    between atoms: _7  and  _8
REMARK    6  A    between atoms: _8  and  _9
REMARK    7  A    between atoms: _18  and  _20
REMARK    8  A    between atoms: _20  and  _21
REMARK    9  A    between atoms: _20  and  _23
REMARK   10  A    between atoms: _23  and  _24
REMARK   11  A    between atoms: _27  and  _29
REMARK   12  A    between atoms: _29  and  _30
REMARK   13  A    between atoms: _29  and  _32
REMARK   14  A    between atoms: _32  and  _33
REMARK   15  A    between atoms: _36  and  _38
REMARK   16  A    between atoms: _38  and  _39
REMARK   17  A    between atoms: _38  and  _41
REMARK   18  A    between atoms: _41  and  _42
REMARK   19  A    between atoms: _45  and  _47
REMARK   20  A    between atoms: _47  and  _48
REMARK   21  A    between atoms: _47  and  _50
REMARK   22  A    between atoms: _50  and  _51
REMARK   23  A    between atoms: _54  and  _56
REMARK   24  A    between atoms: _56  and  _57
REMARK   25  A    between atoms: _59  and  _61
REMARK   26  A    between atoms: _61  and  _62
REMARK   27  A    between atoms: _65  and  _67
REMARK   28  A    between atoms: _67  and  _68
REMARK   29  A    between atoms: _67  and  _70
REMARK   30  A    between atoms: _70  and  _71
REMARK   31  A    between atoms: _74  and  _76
REMARK   32  A    between atoms: _76  and  _77
REMARK   33  A    between atoms: _76  and  _79
REMARK   34  A    between atoms: _79  and  _80
REMARK   35  A    between atoms: _83  and  _85
REMARK   36  A    between atoms: _85  and  _86
REMARK   37  A    between atoms: _85  and  _88
REMARK   38  A    between atoms: _88  and  _89
REMARK   39  A    between atoms: _92  and  _94
REMARK   40  A    between atoms: _94  and  _95
REMARK   41  A    between atoms: _94  and  _97
REMARK   42  A    between atoms: _100  and  _102
REMARK   43  A    between atoms: _102  and  _103
REMARK   44  A    between atoms: _102  and  _105
REMARK   45  A    between atoms: _105  and  _106
REMARK   46  A    between atoms: _106  and  _107
REMARK   47  A    between atoms: _107  and  _108
REMARK   48  A    between atoms: _108  and  _109
REMARK   49  A    between atoms: _113  and  _115
REMARK   50  A    between atoms: _115  and  _116
REMARK   51  A    between atoms: _115  and  _118
REMARK   52  A    between atoms: _118  and  _119
REMARK   53  A    between atoms: _119  and  _120
REMARK   54  A    between atoms: _122  and  _124
REMARK   55  A    between atoms: _124  and  _125
REMARK   56  A    between atoms: _124  and  _127
REMARK   57  A    between atoms: _127  and  _128
REMARK   58  A    between atoms: _131  and  _133
REMARK   59  A    between atoms: _133  and  _134
REMARK   60  A    between atoms: _136  and  _138
REMARK   61  A    between atoms: _138  and  _139
REMARK   62  A    between atoms: _141  and  _143
REMARK   63  A    between atoms: _143  and  _144
REMARK   64  A    between atoms: _143  and  _146
REMARK   65  A    between atoms: _146  and  _147
REMARK   66  A    between atoms: _150  and  _152
REMARK   67  A    between atoms: _152  and  _153
REMARK   68  A    between atoms: _155  and  _157
REMARK   69  A    between atoms: _157  and  _158
REMARK   70  A    between atoms: _160  and  _162
REMARK   71  A    between atoms: _162  and  _163
REMARK   72  A    between atoms: _162  and  _165
REMARK   73  A    between atoms: _165  and  _166
REMARK   74  A    between atoms: _172  and  _174
REMARK   75  A    between atoms: _174  and  _175
REMARK   76  A    between atoms: _174  and  _177
REMARK   77  A    between atoms: _177  and  _178
REMARK   78  A    between atoms: _181  and  _183
REMARK   79  A    between atoms: _183  and  _184
REMARK   80  A    between atoms: _183  and  _186
REMARK   81  A    between atoms: _189  and  _191
REMARK   82  A    between atoms: _191  and  _192
REMARK   83  A    between atoms: _191  and  _194
REMARK   84  A    between atoms: _194  and  _195
REMARK   85  A    between atoms: _198  and  _200
REMARK   86  A    between atoms: _200  and  _201
REMARK   87  A    between atoms: _200  and  _203
REMARK   88  A    between atoms: _203  and  _204
REMARK   89  A    between atoms: _208  and  _209
REMARK   90  A    between atoms: _214  and  _216
REMARK   91  A    between atoms: _216  and  _217
REMARK   92  A    between atoms: _216  and  _219
REMARK   93  A    between atoms: _222  and  _224
REMARK   94  A    between atoms: _224  and  _225
REMARK   95  A    between atoms: _224  and  _227
REMARK   96  A    between atoms: _227  and  _228
REMARK   97  A    between atoms: _233  and  _235
REMARK   98  A    between atoms: _235  and  _236
REMARK   99  A    between atoms: _235  and  _238
REMARK  100  A    between atoms: _238  and  _239
REMARK  101  A    between atoms: _242  and  _244
REMARK  102  A    between atoms: _244  and  _245
REMARK  103  A    between atoms: _244  and  _247
REMARK  104  A    between atoms: _247  and  _248
REMARK  105  A    between atoms: _251  and  _253
REMARK  106  A    between atoms: _253  and  _254
REMARK  107  A    between atoms: _256  and  _258
REMARK  108  A    between atoms: _258  and  _259
REMARK  109  A    between atoms: _258  and  _261
REMARK  110  A    between atoms: _261  and  _262
REMARK  111  A    between atoms: _262  and  _263
REMARK  112  A    between atoms: _263  and  _264
REMARK  113  A    between atoms: _273  and  _275
REMARK  114  A    between atoms: _275  and  _276
REMARK  115  A    between atoms: _275  and  _278
REMARK  116  A    between atoms: _278  and  _279
REMARK  117  A    between atoms: _284  and  _286
REMARK  118  A    between atoms: _286  and  _287
REMARK  119  A    between atoms: _286  and  _289
REMARK  120  A    between atoms: _289  and  _290
REMARK  121  A    between atoms: _290  and  _291
REMARK  122  A    between atoms: _291  and  _292
REMARK  123  A    between atoms: _301  and  _303
REMARK  124  A    between atoms: _303  and  _304
REMARK  125  A    between atoms: _303  and  _306
REMARK  126  A    between atoms: _306  and  _307
REMARK  127  A    between atoms: _310  and  _312
REMARK  128  A    between atoms: _312  and  _313
REMARK  129  A    between atoms: _312  and  _315
REMARK  130  A    between atoms: _315  and  _316
REMARK  131  A    between atoms: _319  and  _321
REMARK  132  A    between atoms: _321  and  _322
REMARK  133  A    between atoms: _321  and  _324
REMARK  134  A    between atoms: _324  and  _325
REMARK  135  A    between atoms: _328  and  _330
REMARK  136  A    between atoms: _330  and  _331
REMARK  137  A    between atoms: _330  and  _333
REMARK  138  A    between atoms: _333  and  _334
REMARK  139  A    between atoms: _337  and  _339
REMARK  140  A    between atoms: _339  and  _340
REMARK  141  A    between atoms: _339  and  _342
REMARK  142  A    between atoms: _342  and  _343
REMARK  143  A    between atoms: _346  and  _348
REMARK  144  A    between atoms: _348  and  _349
REMARK  145  A    between atoms: _351  and  _353
REMARK  146  A    between atoms: _353  and  _354
REMARK  147  A    between atoms: _357  and  _359
REMARK  148  A    between atoms: _359  and  _360
REMARK  149  A    between atoms: _359  and  _362
REMARK  150  A    between atoms: _362  and  _363
REMARK  151  A    between atoms: _366  and  _368
REMARK  152  A    between atoms: _368  and  _369
REMARK  153  A    between atoms: _368  and  _371
REMARK  154  A    between atoms: _371  and  _372
REMARK  155  A    between atoms: _375  and  _377
REMARK  156  A    between atoms: _377  and  _378
REMARK  157  A    between atoms: _377  and  _380
REMARK  158  A    between atoms: _380  and  _381
REMARK  159  A    between atoms: _384  and  _386
REMARK  160  A    between atoms: _386  and  _387
REMARK  161  A    between atoms: _386  and  _389
REMARK  162  A    between atoms: _392  and  _394
REMARK  163  A    between atoms: _394  and  _395
REMARK  164  A    between atoms: _394  and  _397
REMARK  165  A    between atoms: _397  and  _398
REMARK  166  A    between atoms: _398  and  _399
REMARK  167  A    between atoms: _399  and  _400
REMARK  168  A    between atoms: _400  and  _401
REMARK  169  A    between atoms: _405  and  _407
REMARK  170  A    between atoms: _407  and  _408
REMARK  171  A    between atoms: _407  and  _410
REMARK  172  A    between atoms: _410  and  _411
REMARK  173  A    between atoms: _411  and  _412
REMARK  174  A    between atoms: _414  and  _416
REMARK  175  A    between atoms: _416  and  _417
REMARK  176  A    between atoms: _416  and  _419
REMARK  177  A    between atoms: _419  and  _420
REMARK  178  A    between atoms: _423  and  _425
REMARK  179  A    between atoms: _425  and  _426
REMARK  180  A    between atoms: _428  and  _430
REMARK  181  A    between atoms: _430  and  _431
REMARK  182  A    between atoms: _433  and  _435
REMARK  183  A    between atoms: _435  and  _436
REMARK  184  A    between atoms: _435  and  _438
REMARK  185  A    between atoms: _438  and  _439
REMARK  186  A    between atoms: _442  and  _444
REMARK  187  A    between atoms: _444  and  _445
REMARK  188  A    between atoms: _447  and  _449
REMARK  189  A    between atoms: _449  and  _450
REMARK  190  A    between atoms: _452  and  _454
REMARK  191  A    between atoms: _454  and  _455
REMARK  192  A    between atoms: _454  and  _457
REMARK  193  A    between atoms: _457  and  _458
REMARK  194  A    between atoms: _464  and  _466
REMARK  195  A    between atoms: _466  and  _467
REMARK  196  A    between atoms: _466  and  _469
REMARK  197  A    between atoms: _469  and  _470
REMARK  198  A    between atoms: _473  and  _475
REMARK  199  A    between atoms: _475  and  _476
REMARK  200  A    between atoms: _475  and  _478
REMARK  201  A    between atoms: _481  and  _483
REMARK  202  A    between atoms: _483  and  _484
REMARK  203  A    between atoms: _483  and  _486
REMARK  204  A    between atoms: _486  and  _487
REMARK  205  A    between atoms: _491  and  _492
REMARK  206  A    between atoms: _497  and  _499
REMARK  207  A    between atoms: _499  and  _500
REMARK  208  A    between atoms: _499  and  _502
REMARK  209  A    between atoms: _502  and  _503
REMARK  210  A    between atoms: _507  and  _508
REMARK  211  A    between atoms: _513  and  _515
REMARK  212  A    between atoms: _515  and  _516
REMARK  213  A    between atoms: _515  and  _518
REMARK  214  A    between atoms: _521  and  _523
REMARK  215  A    between atoms: _523  and  _524
REMARK  216  A    between atoms: _523  and  _526
REMARK  217  A    between atoms: _526  and  _527
REMARK  218  A    between atoms: _532  and  _534
REMARK  219  A    between atoms: _534  and  _535
REMARK  220  A    between atoms: _534  and  _537
REMARK  221  A    between atoms: _537  and  _538
REMARK  222  A    between atoms: _541  and  _543
REMARK  223  A    between atoms: _543  and  _544
REMARK  224  A    between atoms: _543  and  _546
REMARK  225  A    between atoms: _546  and  _547
REMARK  226  A    between atoms: _550  and  _552
REMARK  227  A    between atoms: _552  and  _553
REMARK  228  A    between atoms: _555  and  _557
REMARK  229  A    between atoms: _557  and  _558
REMARK  230  A    between atoms: _557  and  _560
REMARK  231  A    between atoms: _560  and  _561
REMARK  232  A    between atoms: _561  and  _562
REMARK  233  A    between atoms: _562  and  _563
REMARK  234  A    between atoms: _572  and  _574
REMARK  235  A    between atoms: _574  and  _575
REMARK  236  A    between atoms: _574  and  _577
REMARK  237  A    between atoms: _577  and  _578
REMARK                            x       y       z     vdW  Elec       q    Type
REMARK                         _______ _______ _______ _____ _____    ______ ____
ROOT
ATOM      1  O   HOH     1      18.081 -27.384 -16.939  0.00  0.00    +0.000 OA
ENDROOT
TORSDOF 0
REMARK  Name = ../refined-set-2016/2pwr/2pwr_pocket.pdb
REMARK  237 active torsions:
REMARK  status: ('A' for Active; 'I' for Inactive)
REMARK    1  A    between atoms: _1  and  _3
REMARK    2  A    between atoms: _3  and  _4
REMARK    3  A    between atoms: _3  and  _6
REMARK    4  A    between atoms: _6  and  _7
REMARK    5  A    between atoms: _7  and  _8
REMARK    6  A    between atoms: _8  and  _9
REMARK    7  A    between atoms: _18  and  _20
REMARK    8  A    between atoms: _20  and  _21
REMARK    9  A    between atoms: _20  and  _23
REMARK   10  A    between atoms: _23  and  _24
REMARK   11  A    between atoms: _27  and  _29
REMARK   12  A    between atoms: _29  and  _30
REMARK   13  A    between atoms: _29  and  _32
REMARK   14  A    between atoms: _32  and  _33
REMARK   15  A    between atoms: _36  and  _38
REMARK   16  A    between atoms: _38  and  _39
REMARK   17  A    between atoms: _38  and  _41
REMARK   18  A    between atoms: _41  and  _42
REMARK   19  A    between atoms: _45  and  _47
REMARK   20  A    between atoms: _47  and  _48
REMARK   21  A    between atoms: _47  and  _50
REMARK   22  A    between atoms: _50  and  _51
REMARK   23  A    between atoms: _54  and  _56
REMARK   24  A    between atoms: _56  and  _57
REMARK   25  A    between atoms: _59  and  _61
REMARK   26  A    between atoms: _61  and  _62
REMARK   27  A    between atoms: _65  and  _67
REMARK   28  A    between atoms: _67  and  _68
REMARK   29  A    between atoms: _67  and  _70
REMARK   30  A    between atoms: _70  and  _71
REMARK   31  A    between atoms: _74  and  _76
REMARK   32  A    between atoms: _76  and  _77
REMARK   33  A    between atoms: _76  and  _79
REMARK   34  A    between atoms: _79  and  _80
REMARK   35  A    between atoms: _83  and  _85
REMARK   36  A    between atoms: _85  and  _86
REMARK   37  A    between atoms: _85  and  _88
REMARK   38  A    between atoms: _88  and  _89
REMARK   39  A    between atoms: _92  and  _94
REMARK   40  A    between atoms: _94  and  _95
REMARK   41  A    between atoms: _94  and  _97
REMARK   42  A    between atoms: _100  and  _102
REMARK   43  A    between atoms: _102  and  _103
REMARK   44  A    between atoms: _102  and  _105
REMARK   45  A    between atoms: _105  and  _106
REMARK   46  A    between atoms: _106  and  _107
REMARK   47  A    between atoms: _107  and  _108
REMARK   48  A    between atoms: _108  and  _109
REMARK   49  A    between atoms: _113  and  _115
REMARK   50  A    between atoms: _115  and  _116
REMARK   51  A    between atoms: _115  and  _118
REMARK   52  A    between atoms: _118  and  _119
REMARK   53  A    between atoms: _119  and  _120
REMARK   54  A    between atoms: _122  and  _124
REMARK   55  A    between atoms: _124  and  _125
REMARK   56  A    between atoms: _124  and  _127
REMARK   57  A    between atoms: _127  and  _128
REMARK   58  A    between atoms: _131  and  _133
REMARK   59  A    between atoms: _133  and  _134
REMARK   60  A    between atoms: _136  and  _138
REMARK   61  A    between atoms: _138  and  _139
REMARK   62  A    between atoms: _141  and  _143
REMARK   63  A    between atoms: _143  and  _144
REMARK   64  A    between atoms: _143  and  _146
REMARK   65  A    between atoms: _146  and  _147
REMARK   66  A    between atoms: _150  and  _152
REMARK   67  A    between atoms: _152  and  _153
REMARK   68  A    between atoms: _155  and  _157
REMARK   69  A    between atoms: _157  and  _158
REMARK   70  A    between atoms: _160  and  _162
REMARK   71  A    between atoms: _162  and  _163
REMARK   72  A    between atoms: _162  and  _165
REMARK   73  A    between atoms: _165  and  _166
REMARK   74  A    between atoms: _172  and  _174
REMARK   75  A    between atoms: _174  and  _175
REMARK   76  A    between atoms: _174  and  _177
REMARK   77  A    between atoms: _177  and  _178
REMARK   78  A    between atoms: _181  and  _183
REMARK   79  A    between atoms: _183  and  _184
REMARK   80  A    between atoms: _183  and  _186
REMARK   81  A    between atoms: _189  and  _191
REMARK   82  A    between atoms: _191  and  _192
REMARK   83  A    between atoms: _191  and  _194
REMARK   84  A    between atoms: _194  and  _195
REMARK   85  A    between atoms: _198  and  _200
REMARK   86  A    between atoms: _200  and  _201
REMARK   87  A    between atoms: _200  and  _203
REMARK   88  A    between atoms: _203  and  _204
REMARK   89  A    between atoms: _208  and  _209
REMARK   90  A    between atoms: _214  and  _216
REMARK   91  A    between atoms: _216  and  _217
REMARK   92  A    between atoms: _216  and  _219
REMARK   93  A    between atoms: _222  and  _224
REMARK   94  A    between atoms: _224  and  _225
REMARK   95  A    between atoms: _224  and  _227
REMARK   96  A    between atoms: _227  and  _228
REMARK   97  A    between atoms: _233  and  _235
REMARK   98  A    between atoms: _235  and  _236
REMARK   99  A    between atoms: _235  and  _238
REMARK  100  A    between atoms: _238  and  _239
REMARK  101  A    between atoms: _242  and  _244
REMARK  102  A    between atoms: _244  and  _245
REMARK  103  A    between atoms: _244  and  _247
REMARK  104  A    between atoms: _247  and  _248
REMARK  105  A    between atoms: _251  and  _253
REMARK  106  A    between atoms: _253  and  _254
REMARK  107  A    between atoms: _256  and  _258
REMARK  108  A    between atoms: _258  and  _259
REMARK  109  A    between atoms: _258  and  _261
REMARK  110  A    between atoms: _261  and  _262
REMARK  111  A    between atoms: _262  and  _263
REMARK  112  A    between atoms: _263  and  _264
REMARK  113  A    between atoms: _273  and  _275
REMARK  114  A    between atoms: _275  and  _276
REMARK  115  A    between atoms: _275  and  _278
REMARK  116  A    between atoms: _278  and  _279
REMARK  117  A    between atoms: _284  and  _286
REMARK  118  A    between atoms: _286  and  _287
REMARK  119  A    between atoms: _286  and  _289
REMARK  120  A    between atoms: _289  and  _290
REMARK  121  A    between atoms: _290  and  _291
REMARK  122  A    between atoms: _291  and  _292
REMARK  123  A    between atoms: _301  and  _303
REMARK  124  A    between atoms: _303  and  _304
REMARK  125  A    between atoms: _303  and  _306
REMARK  126  A    between atoms: _306  and  _307
REMARK  127  A    between atoms: _310  and  _312
REMARK  128  A    between atoms: _312  and  _313
REMARK  129  A    between atoms: _312  and  _315
REMARK  130  A    between atoms: _315  and  _316
REMARK  131  A    between atoms: _319  and  _321
REMARK  132  A    between atoms: _321  and  _322
REMARK  133  A    between atoms: _321  and  _324
REMARK  134  A    between atoms: _324  and  _325
REMARK  135  A    between atoms: _328  and  _330
REMARK  136  A    between atoms: _330  and  _331
REMARK  137  A    between atoms: _330  and  _333
REMARK  138  A    between atoms: _333  and  _334
REMARK  139  A    between atoms: _337  and  _339
REMARK  140  A    between atoms: _339  and  _340
REMARK  141  A    between atoms: _339  and  _342
REMARK  142  A    between atoms: _342  and  _343
REMARK  143  A    between atoms: _346  and  _348
REMARK  144  A    between atoms: _348  and  _349
REMARK  145  A    between atoms: _351  and  _353
REMARK  146  A    between atoms: _353  and  _354
REMARK  147  A    between atoms: _357  and  _359
REMARK  148  A    between atoms: _359  and  _360
REMARK  149  A    between atoms: _359  and  _362
REMARK  150  A    between atoms: _362  and  _363
REMARK  151  A    between atoms: _366  and  _368
REMARK  152  A    between atoms: _368  and  _369
REMARK  153  A    between atoms: _368  and  _371
REMARK  154  A    between atoms: _371  and  _372
REMARK  155  A    between atoms: _375  and  _377
REMARK  156  A    between atoms: _377  and  _378
REMARK  157  A    between atoms: _377  and  _380
REMARK  158  A    between atoms: _380  and  _381
REMARK  159  A    between atoms: _384  and  _386
REMARK  160  A    between atoms: _386  and  _387
REMARK  161  A    between atoms: _386  and  _389
REMARK  162  A    between atoms: _392  and  _394
REMARK  163  A    between atoms: _394  and  _395
REMARK  164  A    between atoms: _394  and  _397
REMARK  165  A    between atoms: _397  and  _398
REMARK  166  A    between atoms: _398  and  _399
REMARK  167  A    between atoms: _399  and  _400
REMARK  168  A    between atoms: _400  and  _401
REMARK  169  A    between atoms: _405  and  _407
REMARK  170  A    between atoms: _407  and  _408
REMARK  171  A    between atoms: _407  and  _410
REMARK  172  A    between atoms: _410  and  _411
REMARK  173  A    between atoms: _411  and  _412
REMARK  174  A    between atoms: _414  and  _416
REMARK  175  A    between atoms: _416  and  _417
REMARK  176  A    between atoms: _416  and  _419
REMARK  177  A    between atoms: _419  and  _420
REMARK  178  A    between atoms: _423  and  _425
REMARK  179  A    between atoms: _425  and  _426
REMARK  180  A    between atoms: _428  and  _430
REMARK  181  A    between atoms: _430  and  _431
REMARK  182  A    between atoms: _433  and  _435
REMARK  183  A    between atoms: _435  and  _436
REMARK  184  A    between atoms: _435  and  _438
REMARK  185  A    between atoms: _438  and  _439
REMARK  186  A    between atoms: _442  and  _444
REMARK  187  A    between atoms: _444  and  _445
REMARK  188  A    between atoms: _447  and  _449
REMARK  189  A    between atoms: _449  and  _450
REMARK  190  A    between atoms: _452  and  _454
REMARK  191  A    between atoms: _454  and  _455
REMARK  192  A    between atoms: _454  and  _457
REMARK  193  A    between atoms: _457  and  _458
REMARK  194  A    between atoms: _464  and  _466
REMARK  195  A    between atoms: _466  and  _467
REMARK  196  A    between atoms: _466  and  _469
REMARK  197  A    between atoms: _469  and  _470
REMARK  198  A    between atoms: _473  and  _475
REMARK  199  A    between atoms: _475  and  _476
REMARK  200  A    between atoms: _475  and  _478
REMARK  201  A    between atoms: _481  and  _483
REMARK  202  A    between atoms: _483  and  _484
REMARK  203  A    between atoms: _483  and  _486
REMARK  204  A    between atoms: _486  and  _487
REMARK  205  A    between atoms: _491  and  _492
REMARK  206  A    between atoms: _497  and  _499
REMARK  207  A    between atoms: _499  and  _500
REMARK  208  A    between atoms: _499  and  _502
REMARK  209  A    between atoms: _502  and  _503
REMARK  210  A    between atoms: _507  and  _508
REMARK  211  A    between atoms: _513  and  _515
REMARK  212  A    between atoms: _515  and  _516
REMARK  213  A    between atoms: _515  and  _518
REMARK  214  A    between atoms: _521  and  _523
REMARK  215  A    between atoms: _523  and  _524
REMARK  216  A    between atoms: _523  and  _526
REMARK  217  A    between atoms: _526  and  _527
REMARK  218  A    between atoms: _532  and  _534
REMARK  219  A    between atoms: _534  and  _535
REMARK  220  A    between atoms: _534  and  _537
REMARK  221  A    between atoms: _537  and  _538
REMARK  222  A    between atoms: _541  and  _543
REMARK  223  A    between atoms: _543  and  _544
REMARK  224  A    between atoms: _543  and  _546
REMARK  225  A    between atoms: _546  and  _547
REMARK  226  A    between atoms: _550  and  _552
REMARK  227  A    between atoms: _552  and  _553
REMARK  228  A    between atoms: _555  and  _557
REMARK  229  A    between atoms: _557  and  _558
REMARK  230  A    between atoms: _557  and  _560
REMARK  231  A    between atoms: _560  and  _561
REMARK  232  A    between atoms: _561  and  _562
REMARK  233  A    between atoms: _562  and  _563
REMARK  234  A    between atoms: _572  and  _574
REMARK  235  A    between atoms: _574  and  _575
REMARK  236  A    between atoms: _574  and  _577
REMARK  237  A    between atoms: _577  and  _578
REMARK                            x       y       z     vdW  Elec       q    Type
REMARK                         _______ _______ _______ _____ _____    ______ ____
ROOT
ATOM      1  O   HOH     1      20.100 -27.064 -18.990  0.00  0.00    +0.000 OA
ENDROOT
TORSDOF 0
REMARK  Name = ../refined-set-2016/2pwr/2pwr_pocket.pdb
REMARK  237 active torsions:
REMARK  status: ('A' for Active; 'I' for Inactive)
REMARK    1  A    between atoms: _1  and  _3
REMARK    2  A    between atoms: _3  and  _4
REMARK    3  A    between atoms: _3  and  _6
REMARK    4  A    between atoms: _6  and  _7
REMARK    5  A    between atoms: _7  and  _8
REMARK    6  A    between atoms: _8  and  _9
REMARK    7  A    between atoms: _18  and  _20
REMARK    8  A    between atoms: _20  and  _21
REMARK    9  A    between atoms: _20  and  _23
REMARK   10  A    between atoms: _23  and  _24
REMARK   11  A    between atoms: _27  and  _29
REMARK   12  A    between atoms: _29  and  _30
REMARK   13  A    between atoms: _29  and  _32
REMARK   14  A    between atoms: _32  and  _33
REMARK   15  A    between atoms: _36  and  _38
REMARK   16  A    between atoms: _38  and  _39
REMARK   17  A    between atoms: _38  and  _41
REMARK   18  A    between atoms: _41  and  _42
REMARK   19  A    between atoms: _45  and  _47
REMARK   20  A    between atoms: _47  and  _48
REMARK   21  A    between atoms: _47  and  _50
REMARK   22  A    between atoms: _50  and  _51
REMARK   23  A    between atoms: _54  and  _56
REMARK   24  A    between atoms: _56  and  _57
REMARK   25  A    between atoms: _59  and  _61
REMARK   26  A    between atoms: _61  and  _62
REMARK   27  A    between atoms: _65  and  _67
REMARK   28  A    between atoms: _67  and  _68
REMARK   29  A    between atoms: _67  and  _70
REMARK   30  A    between atoms: _70  and  _71
REMARK   31  A    between atoms: _74  and  _76
REMARK   32  A    between atoms: _76  and  _77
REMARK   33  A    between atoms: _76  and  _79
REMARK   34  A    between atoms: _79  and  _80
REMARK   35  A    between atoms: _83  and  _85
REMARK   36  A    between atoms: _85  and  _86
REMARK   37  A    between atoms: _85  and  _88
REMARK   38  A    between atoms: _88  and  _89
REMARK   39  A    between atoms: _92  and  _94
REMARK   40  A    between atoms: _94  and  _95
REMARK   41  A    between atoms: _94  and  _97
REMARK   42  A    between atoms: _100  and  _102
REMARK   43  A    between atoms: _102  and  _103
REMARK   44  A    between atoms: _102  and  _105
REMARK   45  A    between atoms: _105  and  _106
REMARK   46  A    between atoms: _106  and  _107
REMARK   47  A    between atoms: _107  and  _108
REMARK   48  A    between atoms: _108  and  _109
REMARK   49  A    between atoms: _113  and  _115
REMARK   50  A    between atoms: _115  and  _116
REMARK   51  A    between atoms: _115  and  _118
REMARK   52  A    between atoms: _118  and  _119
REMARK   53  A    between atoms: _119  and  _120
REMARK   54  A    between atoms: _122  and  _124
REMARK   55  A    between atoms: _124  and  _125
REMARK   56  A    between atoms: _124  and  _127
REMARK   57  A    between atoms: _127  and  _128
REMARK   58  A    between atoms: _131  and  _133
REMARK   59  A    between atoms: _133  and  _134
REMARK   60  A    between atoms: _136  and  _138
REMARK   61  A    between atoms: _138  and  _139
REMARK   62  A    between atoms: _141  and  _143
REMARK   63  A    between atoms: _143  and  _144
REMARK   64  A    between atoms: _143  and  _146
REMARK   65  A    between atoms: _146  and  _147
REMARK   66  A    between atoms: _150  and  _152
REMARK   67  A    between atoms: _152  and  _153
REMARK   68  A    between atoms: _155  and  _157
REMARK   69  A    between atoms: _157  and  _158
REMARK   70  A    between atoms: _160  and  _162
REMARK   71  A    between atoms: _162  and  _163
REMARK   72  A    between atoms: _162  and  _165
REMARK   73  A    between atoms: _165  and  _166
REMARK   74  A    between atoms: _172  and  _174
REMARK   75  A    between atoms: _174  and  _175
REMARK   76  A    between atoms: _174  and  _177
REMARK   77  A    between atoms: _177  and  _178
REMARK   78  A    between atoms: _181  and  _183
REMARK   79  A    between atoms: _183  and  _184
REMARK   80  A    between atoms: _183  and  _186
REMARK   81  A    between atoms: _189  and  _191
REMARK   82  A    between atoms: _191  and  _192
REMARK   83  A    between atoms: _191  and  _194
REMARK   84  A    between atoms: _194  and  _195
REMARK   85  A    between atoms: _198  and  _200
REMARK   86  A    between atoms: _200  and  _201
REMARK   87  A    between atoms: _200  and  _203
REMARK   88  A    between atoms: _203  and  _204
REMARK   89  A    between atoms: _208  and  _209
REMARK   90  A    between atoms: _214  and  _216
REMARK   91  A    between atoms: _216  and  _217
REMARK   92  A    between atoms: _216  and  _219
REMARK   93  A    between atoms: _222  and  _224
REMARK   94  A    between atoms: _224  and  _225
REMARK   95  A    between atoms: _224  and  _227
REMARK   96  A    between atoms: _227  and  _228
REMARK   97  A    between atoms: _233  and  _235
REMARK   98  A    between atoms: _235  and  _236
REMARK   99  A    between atoms: _235  and  _238
REMARK  100  A    between atoms: _238  and  _239
REMARK  101  A    between atoms: _242  and  _244
REMARK  102  A    between atoms: _244  and  _245
REMARK  103  A    between atoms: _244  and  _247
REMARK  104  A    between atoms: _247  and  _248
REMARK  105  A    between atoms: _251  and  _253
REMARK  106  A    between atoms: _253  and  _254
REMARK  107  A    between atoms: _256  and  _258
REMARK  108  A    between atoms: _258  and  _259
REMARK  109  A    between atoms: _258  and  _261
REMARK  110  A    between atoms: _261  and  _262
REMARK  111  A    between atoms: _262  and  _263
REMARK  112  A    between atoms: _263  and  _264
REMARK  113  A    between atoms: _273  and  _275
REMARK  114  A    between atoms: _275  and  _276
REMARK  115  A    between atoms: _275  and  _278
REMARK  116  A    between atoms: _278  and  _279
REMARK  117  A    between atoms: _284  and  _286
REMARK  118  A    between atoms: _286  and  _287
REMARK  119  A    between atoms: _286  and  _289
REMARK  120  A    between atoms: _289  and  _290
REMARK  121  A    between atoms: _290  and  _291
REMARK  122  A    between atoms: _291  and  _292
REMARK  123  A    between atoms: _301  and  _303
REMARK  124  A    between atoms: _303  and  _304
REMARK  125  A    between atoms: _303  and  _306
REMARK  126  A    between atoms: _306  and  _307
REMARK  127  A    between atoms: _310  and  _312
REMARK  128  A    between atoms: _312  and  _313
REMARK  129  A    between atoms: _312  and  _315
REMARK  130  A    between atoms: _315  and  _316
REMARK  131  A    between atoms: _319  and  _321
REMARK  132  A    between atoms: _321  and  _322
REMARK  133  A    between atoms: _321  and  _324
REMARK  134  A    between atoms: _324  and  _325
REMARK  135  A    between atoms: _328  and  _330
REMARK  136  A    between atoms: _330  and  _331
REMARK  137  A    between atoms: _330  and  _333
REMARK  138  A    between atoms: _333  and  _334
REMARK  139  A    between atoms: _337  and  _339
REMARK  140  A    between atoms: _339  and  _340
REMARK  141  A    between atoms: _339  and  _342
REMARK  142  A    between atoms: _342  and  _343
REMARK  143  A    between atoms: _346  and  _348
REMARK  144  A    between atoms: _348  and  _349
REMARK  145  A    between atoms: _351  and  _353
REMARK  146  A    between atoms: _353  and  _354
REMARK  147  A    between atoms: _357  and  _359
REMARK  148  A    between atoms: _359  and  _360
REMARK  149  A    between atoms: _359  and  _362
REMARK  150  A    between atoms: _362  and  _363
REMARK  151  A    between atoms: _366  and  _368
REMARK  152  A    between atoms: _368  and  _369
REMARK  153  A    between atoms: _368  and  _371
REMARK  154  A    between atoms: _371  and  _372
REMARK  155  A    between atoms: _375  and  _377
REMARK  156  A    between atoms: _377  and  _378
REMARK  157  A    between atoms: _377  and  _380
REMARK  158  A    between atoms: _380  and  _381
REMARK  159  A    between atoms: _384  and  _386
REMARK  160  A    between atoms: _386  and  _387
REMARK  161  A    between atoms: _386  and  _389
REMARK  162  A    between atoms: _392  and  _394
REMARK  163  A    between atoms: _394  and  _395
REMARK  164  A    between atoms: _394  and  _397
REMARK  165  A    between atoms: _397  and  _398
REMARK  166  A    between atoms: _398  and  _399
REMARK  167  A    between atoms: _399  and  _400
REMARK  168  A    between atoms: _400  and  _401
REMARK  169  A    between atoms: _405  and  _407
REMARK  170  A    between atoms: _407  and  _408
REMARK  171  A    between atoms: _407  and  _410
REMARK  172  A    between atoms: _410  and  _411
REMARK  173  A    between atoms: _411  and  _412
REMARK  174  A    between atoms: _414  and  _416
REMARK  175  A    between atoms: _416  and  _417
REMARK  176  A    between atoms: _416  and  _419
REMARK  177  A    between atoms: _419  and  _420
REMARK  178  A    between atoms: _423  and  _425
REMARK  179  A    between atoms: _425  and  _426
REMARK  180  A    between atoms: _428  and  _430
REMARK  181  A    between atoms: _430  and  _431
REMARK  182  A    between atoms: _433  and  _435
REMARK  183  A    between atoms: _435  and  _436
REMARK  184  A    between atoms: _435  and  _438
REMARK  185  A    between atoms: _438  and  _439
REMARK  186  A    between atoms: _442  and  _444
REMARK  187  A    between atoms: _444  and  _445
REMARK  188  A    between atoms: _447  and  _449
REMARK  189  A    between atoms: _449  and  _450
REMARK  190  A    between atoms: _452  and  _454
REMARK  191  A    between atoms: _454  and  _455
REMARK  192  A    between atoms: _454  and  _457
REMARK  193  A    between atoms: _457  and  _458
REMARK  194  A    between atoms: _464  and  _466
REMARK  195  A    between atoms: _466  and  _467
REMARK  196  A    between atoms: _466  and  _469
REMARK  197  A    between atoms: _469  and  _470
REMARK  198  A    between atoms: _473  and  _475
REMARK  199  A    between atoms: _475  and  _476
REMARK  200  A    between atoms: _475  and  _478
REMARK  201  A    between atoms: _481  and  _483
REMARK  202  A    between atoms: _483  and  _484
REMARK  203  A    between atoms: _483  and  _486
REMARK  204  A    between atoms: _486  and  _487
REMARK  205  A    between atoms: _491  and  _492
REMARK  206  A    between atoms: _497  and  _499
REMARK  207  A    between atoms: _499  and  _500
REMARK  208  A    between atoms: _499  and  _502
REMARK  209  A    between atoms: _502  and  _503
REMARK  210  A    between atoms: _507  and  _508
REMARK  211  A    between atoms: _513  and  _515
REMARK  212  A    between atoms: _515  and  _516
REMARK  213  A    between atoms: _515  and  _518
REMARK  214  A    between atoms: _521  and  _523
REMARK  215  A    between atoms: _523  and  _524
REMARK  216  A    between atoms: _523  and  _526
REMARK  217  A    between atoms: _526  and  _527
REMARK  218  A    between atoms: _532  and  _534
REMARK  219  A    between atoms: _534  and  _535
REMARK  220  A    between atoms: _534  and  _537
REMARK  221  A    between atoms: _537  and  _538
REMARK  222  A    between atoms: _541  and  _543
REMARK  223  A    between atoms: _543  and  _544
REMARK  224  A    between atoms: _543  and  _546
REMARK  225  A    between atoms: _546  and  _547
REMARK  226  A    between atoms: _550  and  _552
REMARK  227  A    between atoms: _552  and  _553
REMARK  228  A    between atoms: _555  and  _557
REMARK  229  A    between atoms: _557  and  _558
REMARK  230  A    between atoms: _557  and  _560
REMARK  231  A    between atoms: _560  and  _561
REMARK  232  A    between atoms: _561  and  _562
REMARK  233  A    between atoms: _562  and  _563
REMARK  234  A    between atoms: _572  and  _574
REMARK  235  A    between atoms: _574  and  _575
REMARK  236  A    between atoms: _574  and  _577
REMARK  237  A    between atoms: _577  and  _578
REMARK                            x       y       z     vdW  Elec       q    Type
REMARK                         _______ _______ _______ _____ _____    ______ ____
ROOT
ATOM      1  O   HOH     1       5.450 -15.495 -18.316  0.00  0.00    +0.000 OA
ENDROOT
TORSDOF 0
REMARK  Name = ../refined-set-2016/2pwr/2pwr_pocket.pdb
REMARK  237 active torsions:
REMARK  status: ('A' for Active; 'I' for Inactive)
REMARK    1  A    between atoms: _1  and  _3
REMARK    2  A    between atoms: _3  and  _4
REMARK    3  A    between atoms: _3  and  _6
REMARK    4  A    between atoms: _6  and  _7
REMARK    5  A    between atoms: _7  and  _8
REMARK    6  A    between atoms: _8  and  _9
REMARK    7  A    between atoms: _18  and  _20
REMARK    8  A    between atoms: _20  and  _21
REMARK    9  A    between atoms: _20  and  _23
REMARK   10  A    between atoms: _23  and  _24
REMARK   11  A    between atoms: _27  and  _29
REMARK   12  A    between atoms: _29  and  _30
REMARK   13  A    between atoms: _29  and  _32
REMARK   14  A    between atoms: _32  and  _33
REMARK   15  A    between atoms: _36  and  _38
REMARK   16  A    between atoms: _38  and  _39
REMARK   17  A    between atoms: _38  and  _41
REMARK   18  A    between atoms: _41  and  _42
REMARK   19  A    between atoms: _45  and  _47
REMARK   20  A    between atoms: _47  and  _48
REMARK   21  A    between atoms: _47  and  _50
REMARK   22  A    between atoms: _50  and  _51
REMARK   23  A    between atoms: _54  and  _56
REMARK   24  A    between atoms: _56  and  _57
REMARK   25  A    between atoms: _59  and  _61
REMARK   26  A    between atoms: _61  and  _62
REMARK   27  A    between atoms: _65  and  _67
REMARK   28  A    between atoms: _67  and  _68
REMARK   29  A    between atoms: _67  and  _70
REMARK   30  A    between atoms: _70  and  _71
REMARK   31  A    between atoms: _74  and  _76
REMARK   32  A    between atoms: _76  and  _77
REMARK   33  A    between atoms: _76  and  _79
REMARK   34  A    between atoms: _79  and  _80
REMARK   35  A    between atoms: _83  and  _85
REMARK   36  A    between atoms: _85  and  _86
REMARK   37  A    between atoms: _85  and  _88
REMARK   38  A    between atoms: _88  and  _89
REMARK   39  A    between atoms: _92  and  _94
REMARK   40  A    between atoms: _94  and  _95
REMARK   41  A    between atoms: _94  and  _97
REMARK   42  A    between atoms: _100  and  _102
REMARK   43  A    between atoms: _102  and  _103
REMARK   44  A    between atoms: _102  and  _105
REMARK   45  A    between atoms: _105  and  _106
REMARK   46  A    between atoms: _106  and  _107
REMARK   47  A    between atoms: _107  and  _108
REMARK   48  A    between atoms: _108  and  _109
REMARK   49  A    between atoms: _113  and  _115
REMARK   50  A    between atoms: _115  and  _116
REMARK   51  A    between atoms: _115  and  _118
REMARK   52  A    between atoms: _118  and  _119
REMARK   53  A    between atoms: _119  and  _120
REMARK   54  A    between atoms: _122  and  _124
REMARK   55  A    between atoms: _124  and  _125
REMARK   56  A    between atoms: _124  and  _127
REMARK   57  A    between atoms: _127  and  _128
REMARK   58  A    between atoms: _131  and  _133
REMARK   59  A    between atoms: _133  and  _134
REMARK   60  A    between atoms: _136  and  _138
REMARK   61  A    between atoms: _138  and  _139
REMARK   62  A    between atoms: _141  and  _143
REMARK   63  A    between atoms: _143  and  _144
REMARK   64  A    between atoms: _143  and  _146
REMARK   65  A    between atoms: _146  and  _147
REMARK   66  A    between atoms: _150  and  _152
REMARK   67  A    between atoms: _152  and  _153
REMARK   68  A    between atoms: _155  and  _157
REMARK   69  A    between atoms: _157  and  _158
REMARK   70  A    between atoms: _160  and  _162
REMARK   71  A    between atoms: _162  and  _163
REMARK   72  A    between atoms: _162  and  _165
REMARK   73  A    between atoms: _165  and  _166
REMARK   74  A    between atoms: _172  and  _174
REMARK   75  A    between atoms: _174  and  _175
REMARK   76  A    between atoms: _174  and  _177
REMARK   77  A    between atoms: _177  and  _178
REMARK   78  A    between atoms: _181  and  _183
REMARK   79  A    between atoms: _183  and  _184
REMARK   80  A    between atoms: _183  and  _186
REMARK   81  A    between atoms: _189  and  _191
REMARK   82  A    between atoms: _191  and  _192
REMARK   83  A    between atoms: _191  and  _194
REMARK   84  A    between atoms: _194  and  _195
REMARK   85  A    between atoms: _198  and  _200
REMARK   86  A    between atoms: _200  and  _201
REMARK   87  A    between atoms: _200  and  _203
REMARK   88  A    between atoms: _203  and  _204
REMARK   89  A    between atoms: _208  and  _209
REMARK   90  A    between atoms: _214  and  _216
REMARK   91  A    between atoms: _216  and  _217
REMARK   92  A    between atoms: _216  and  _219
REMARK   93  A    between atoms: _222  and  _224
REMARK   94  A    between atoms: _224  and  _225
REMARK   95  A    between atoms: _224  and  _227
REMARK   96  A    between atoms: _227  and  _228
REMARK   97  A    between atoms: _233  and  _235
REMARK   98  A    between atoms: _235  and  _236
REMARK   99  A    between atoms: _235  and  _238
REMARK  100  A    between atoms: _238  and  _239
REMARK  101  A    between atoms: _242  and  _244
REMARK  102  A    between atoms: _244  and  _245
REMARK  103  A    between atoms: _244  and  _247
REMARK  104  A    between atoms: _247  and  _248
REMARK  105  A    between atoms: _251  and  _253
REMARK  106  A    between atoms: _253  and  _254
REMARK  107  A    between atoms: _256  and  _258
REMARK  108  A    between atoms: _258  and  _259
REMARK  109  A    between atoms: _258  and  _261
REMARK  110  A    between atoms: _261  and  _262
REMARK  111  A    between atoms: _262  and  _263
REMARK  112  A    between atoms: _263  and  _264
REMARK  113  A    between atoms: _273  and  _275
REMARK  114  A    between atoms: _275  and  _276
REMARK  115  A    between atoms: _275  and  _278
REMARK  116  A    between atoms: _278  and  _279
REMARK  117  A    between atoms: _284  and  _286
REMARK  118  A    between atoms: _286  and  _287
REMARK  119  A    between atoms: _286  and  _289
REMARK  120  A    between atoms: _289  and  _290
REMARK  121  A    between atoms: _290  and  _291
REMARK  122  A    between atoms: _291  and  _292
REMARK  123  A    between atoms: _301  and  _303
REMARK  124  A    between atoms: _303  and  _304
REMARK  125  A    between atoms: _303  and  _306
REMARK  126  A    between atoms: _306  and  _307
REMARK  127  A    between atoms: _310  and  _312
REMARK  128  A    between atoms: _312  and  _313
REMARK  129  A    between atoms: _312  and  _315
REMARK  130  A    between atoms: _315  and  _316
REMARK  131  A    between atoms: _319  and  _321
REMARK  132  A    between atoms: _321  and  _322
REMARK  133  A    between atoms: _321  and  _324
REMARK  134  A    between atoms: _324  and  _325
REMARK  135  A    between atoms: _328  and  _330
REMARK  136  A    between atoms: _330  and  _331
REMARK  137  A    between atoms: _330  and  _333
REMARK  138  A    between atoms: _333  and  _334
REMARK  139  A    between atoms: _337  and  _339
REMARK  140  A    between atoms: _339  and  _340
REMARK  141  A    between atoms: _339  and  _342
REMARK  142  A    between atoms: _342  and  _343
REMARK  143  A    between atoms: _346  and  _348
REMARK  144  A    between atoms: _348  and  _349
REMARK  145  A    between atoms: _351  and  _353
REMARK  146  A    between atoms: _353  and  _354
REMARK  147  A    between atoms: _357  and  _359
REMARK  148  A    between atoms: _359  and  _360
REMARK  149  A    between atoms: _359  and  _362
REMARK  150  A    between atoms: _362  and  _363
REMARK  151  A    between atoms: _366  and  _368
REMARK  152  A    between atoms: _368  and  _369
REMARK  153  A    between atoms: _368  and  _371
REMARK  154  A    between atoms: _371  and  _372
REMARK  155  A    between atoms: _375  and  _377
REMARK  156  A    between atoms: _377  and  _378
REMARK  157  A    between atoms: _377  and  _380
REMARK  158  A    between atoms: _380  and  _381
REMARK  159  A    between atoms: _384  and  _386
REMARK  160  A    between atoms: _386  and  _387
REMARK  161  A    between atoms: _386  and  _389
REMARK  162  A    between atoms: _392  and  _394
REMARK  163  A    between atoms: _394  and  _395
REMARK  164  A    between atoms: _394  and  _397
REMARK  165  A    between atoms: _397  and  _398
REMARK  166  A    between atoms: _398  and  _399
REMARK  167  A    between atoms: _399  and  _400
REMARK  168  A    between atoms: _400  and  _401
REMARK  169  A    between atoms: _405  and  _407
REMARK  170  A    between atoms: _407  and  _408
REMARK  171  A    between atoms: _407  and  _410
REMARK  172  A    between atoms: _410  and  _411
REMARK  173  A    between atoms: _411  and  _412
REMARK  174  A    between atoms: _414  and  _416
REMARK  175  A    between atoms: _416  and  _417
REMARK  176  A    between atoms: _416  and  _419
REMARK  177  A    between atoms: _419  and  _420
REMARK  178  A    between atoms: _423  and  _425
REMARK  179  A    between atoms: _425  and  _426
REMARK  180  A    between atoms: _428  and  _430
REMARK  181  A    between atoms: _430  and  _431
REMARK  182  A    between atoms: _433  and  _435
REMARK  183  A    between atoms: _435  and  _436
REMARK  184  A    between atoms: _435  and  _438
REMARK  185  A    between atoms: _438  and  _439
REMARK  186  A    between atoms: _442  and  _444
REMARK  187  A    between atoms: _444  and  _445
REMARK  188  A    between atoms: _447  and  _449
REMARK  189  A    between atoms: _449  and  _450
REMARK  190  A    between atoms: _452  and  _454
REMARK  191  A    between atoms: _454  and  _455
REMARK  192  A    between atoms: _454  and  _457
REMARK  193  A    between atoms: _457  and  _458
REMARK  194  A    between atoms: _464  and  _466
REMARK  195  A    between atoms: _466  and  _467
REMARK  196  A    between atoms: _466  and  _469
REMARK  197  A    between atoms: _469  and  _470
REMARK  198  A    between atoms: _473  and  _475
REMARK  199  A    between atoms: _475  and  _476
REMARK  200  A    between atoms: _475  and  _478
REMARK  201  A    between atoms: _481  and  _483
REMARK  202  A    between atoms: _483  and  _484
REMARK  203  A    between atoms: _483  and  _486
REMARK  204  A    between atoms: _486  and  _487
REMARK  205  A    between atoms: _491  and  _492
REMARK  206  A    between atoms: _497  and  _499
REMARK  207  A    between atoms: _499  and  _500
REMARK  208  A    between atoms: _499  and  _502
REMARK  209  A    between atoms: _502  and  _503
REMARK  210  A    between atoms: _507  and  _508
REMARK  211  A    between atoms: _513  and  _515
REMARK  212  A    between atoms: _515  and  _516
REMARK  213  A    between atoms: _515  and  _518
REMARK  214  A    between atoms: _521  and  _523
REMARK  215  A    between atoms: _523  and  _524
REMARK  216  A    between atoms: _523  and  _526
REMARK  217  A    between atoms: _526  and  _527
REMARK  218  A    between atoms: _532  and  _534
REMARK  219  A    between atoms: _534  and  _535
REMARK  220  A    between atoms: _534  and  _537
REMARK  221  A    between atoms: _537  and  _538
REMARK  222  A    between atoms: _541  and  _543
REMARK  223  A    between atoms: _543  and  _544
REMARK  224  A    between atoms: _543  and  _546
REMARK  225  A    between atoms: _546  and  _547
REMARK  226  A    between atoms: _550  and  _552
REMARK  227  A    between atoms: _552  and  _553
REMARK  228  A    between atoms: _555  and  _557
REMARK  229  A    between atoms: _557  and  _558
REMARK  230  A    between atoms: _557  and  _560
REMARK  231  A    between atoms: _560  and  _561
REMARK  232  A    between atoms: _561  and  _562
REMARK  233  A    between atoms: _562  and  _563
REMARK  234  A    between atoms: _572  and  _574
REMARK  235  A    between atoms: _574  and  _575
REMARK  236  A    between atoms: _574  and  _577
REMARK  237  A    between atoms: _577  and  _578
REMARK                            x       y       z     vdW  Elec       q    Type
REMARK                         _______ _______ _______ _____ _____    ______ ____
ROOT
ATOM      1  O   HOH     1       3.604 -17.507 -21.340  0.00  0.00    +0.000 OA
ENDROOT
TORSDOF 0
REMARK  Name = ../refined-set-2016/2pwr/2pwr_pocket.pdb
REMARK  237 active torsions:
REMARK  status: ('A' for Active; 'I' for Inactive)
REMARK    1  A    between atoms: _1  and  _3
REMARK    2  A    between atoms: _3  and  _4
REMARK    3  A    between atoms: _3  and  _6
REMARK    4  A    between atoms: _6  and  _7
REMARK    5  A    between atoms: _7  and  _8
REMARK    6  A    between atoms: _8  and  _9
REMARK    7  A    between atoms: _18  and  _20
REMARK    8  A    between atoms: _20  and  _21
REMARK    9  A    between atoms: _20  and  _23
REMARK   10  A    between atoms: _23  and  _24
REMARK   11  A    between atoms: _27  and  _29
REMARK   12  A    between atoms: _29  and  _30
REMARK   13  A    between atoms: _29  and  _32
REMARK   14  A    between atoms: _32  and  _33
REMARK   15  A    between atoms: _36  and  _38
REMARK   16  A    between atoms: _38  and  _39
REMARK   17  A    between atoms: _38  and  _41
REMARK   18  A    between atoms: _41  and  _42
REMARK   19  A    between atoms: _45  and  _47
REMARK   20  A    between atoms: _47  and  _48
REMARK   21  A    between atoms: _47  and  _50
REMARK   22  A    between atoms: _50  and  _51
REMARK   23  A    between atoms: _54  and  _56
REMARK   24  A    between atoms: _56  and  _57
REMARK   25  A    between atoms: _59  and  _61
REMARK   26  A    between atoms: _61  and  _62
REMARK   27  A    between atoms: _65  and  _67
REMARK   28  A    between atoms: _67  and  _68
REMARK   29  A    between atoms: _67  and  _70
REMARK   30  A    between atoms: _70  and  _71
REMARK   31  A    between atoms: _74  and  _76
REMARK   32  A    between atoms: _76  and  _77
REMARK   33  A    between atoms: _76  and  _79
REMARK   34  A    between atoms: _79  and  _80
REMARK   35  A    between atoms: _83  and  _85
REMARK   36  A    between atoms: _85  and  _86
REMARK   37  A    between atoms: _85  and  _88
REMARK   38  A    between atoms: _88  and  _89
REMARK   39  A    between atoms: _92  and  _94
REMARK   40  A    between atoms: _94  and  _95
REMARK   41  A    between atoms: _94  and  _97
REMARK   42  A    between atoms: _100  and  _102
REMARK   43  A    between atoms: _102  and  _103
REMARK   44  A    between atoms: _102  and  _105
REMARK   45  A    between atoms: _105  and  _106
REMARK   46  A    between atoms: _106  and  _107
REMARK   47  A    between atoms: _107  and  _108
REMARK   48  A    between atoms: _108  and  _109
REMARK   49  A    between atoms: _113  and  _115
REMARK   50  A    between atoms: _115  and  _116
REMARK   51  A    between atoms: _115  and  _118
REMARK   52  A    between atoms: _118  and  _119
REMARK   53  A    between atoms: _119  and  _120
REMARK   54  A    between atoms: _122  and  _124
REMARK   55  A    between atoms: _124  and  _125
REMARK   56  A    between atoms: _124  and  _127
REMARK   57  A    between atoms: _127  and  _128
REMARK   58  A    between atoms: _131  and  _133
REMARK   59  A    between atoms: _133  and  _134
REMARK   60  A    between atoms: _136  and  _138
REMARK   61  A    between atoms: _138  and  _139
REMARK   62  A    between atoms: _141  and  _143
REMARK   63  A    between atoms: _143  and  _144
REMARK   64  A    between atoms: _143  and  _146
REMARK   65  A    between atoms: _146  and  _147
REMARK   66  A    between atoms: _150  and  _152
REMARK   67  A    between atoms: _152  and  _153
REMARK   68  A    between atoms: _155  and  _157
REMARK   69  A    between atoms: _157  and  _158
REMARK   70  A    between atoms: _160  and  _162
REMARK   71  A    between atoms: _162  and  _163
REMARK   72  A    between atoms: _162  and  _165
REMARK   73  A    between atoms: _165  and  _166
REMARK   74  A    between atoms: _172  and  _174
REMARK   75  A    between atoms: _174  and  _175
REMARK   76  A    between atoms: _174  and  _177
REMARK   77  A    between atoms: _177  and  _178
REMARK   78  A    between atoms: _181  and  _183
REMARK   79  A    between atoms: _183  and  _184
REMARK   80  A    between atoms: _183  and  _186
REMARK   81  A    between atoms: _189  and  _191
REMARK   82  A    between atoms: _191  and  _192
REMARK   83  A    between atoms: _191  and  _194
REMARK   84  A    between atoms: _194  and  _195
REMARK   85  A    between atoms: _198  and  _200
REMARK   86  A    between atoms: _200  and  _201
REMARK   87  A    between atoms: _200  and  _203
REMARK   88  A    between atoms: _203  and  _204
REMARK   89  A    between atoms: _208  and  _209
REMARK   90  A    between atoms: _214  and  _216
REMARK   91  A    between atoms: _216  and  _217
REMARK   92  A    between atoms: _216  and  _219
REMARK   93  A    between atoms: _222  and  _224
REMARK   94  A    between atoms: _224  and  _225
REMARK   95  A    between atoms: _224  and  _227
REMARK   96  A    between atoms: _227  and  _228
REMARK   97  A    between atoms: _233  and  _235
REMARK   98  A    between atoms: _235  and  _236
REMARK   99  A    between atoms: _235  and  _238
REMARK  100  A    between atoms: _238  and  _239
REMARK  101  A    between atoms: _242  and  _244
REMARK  102  A    between atoms: _244  and  _245
REMARK  103  A    between atoms: _244  and  _247
REMARK  104  A    between atoms: _247  and  _248
REMARK  105  A    between atoms: _251  and  _253
REMARK  106  A    between atoms: _253  and  _254
REMARK  107  A    between atoms: _256  and  _258
REMARK  108  A    between atoms: _258  and  _259
REMARK  109  A    between atoms: _258  and  _261
REMARK  110  A    between atoms: _261  and  _262
REMARK  111  A    between atoms: _262  and  _263
REMARK  112  A    between atoms: _263  and  _264
REMARK  113  A    between atoms: _273  and  _275
REMARK  114  A    between atoms: _275  and  _276
REMARK  115  A    between atoms: _275  and  _278
REMARK  116  A    between atoms: _278  and  _279
REMARK  117  A    between atoms: _284  and  _286
REMARK  118  A    between atoms: _286  and  _287
REMARK  119  A    between atoms: _286  and  _289
REMARK  120  A    between atoms: _289  and  _290
REMARK  121  A    between atoms: _290  and  _291
REMARK  122  A    between atoms: _291  and  _292
REMARK  123  A    between atoms: _301  and  _303
REMARK  124  A    between atoms: _303  and  _304
REMARK  125  A    between atoms: _303  and  _306
REMARK  126  A    between atoms: _306  and  _307
REMARK  127  A    between atoms: _310  and  _312
REMARK  128  A    between atoms: _312  and  _313
REMARK  129  A    between atoms: _312  and  _315
REMARK  130  A    between atoms: _315  and  _316
REMARK  131  A    between atoms: _319  and  _321
REMARK  132  A    between atoms: _321  and  _322
REMARK  133  A    between atoms: _321  and  _324
REMARK  134  A    between atoms: _324  and  _325
REMARK  135  A    between atoms: _328  and  _330
REMARK  136  A    between atoms: _330  and  _331
REMARK  137  A    between atoms: _330  and  _333
REMARK  138  A    between atoms: _333  and  _334
REMARK  139  A    between atoms: _337  and  _339
REMARK  140  A    between atoms: _339  and  _340
REMARK  141  A    between atoms: _339  and  _342
REMARK  142  A    between atoms: _342  and  _343
REMARK  143  A    between atoms: _346  and  _348
REMARK  144  A    between atoms: _348  and  _349
REMARK  145  A    between atoms: _351  and  _353
REMARK  146  A    between atoms: _353  and  _354
REMARK  147  A    between atoms: _357  and  _359
REMARK  148  A    between atoms: _359  and  _360
REMARK  149  A    between atoms: _359  and  _362
REMARK  150  A    between atoms: _362  and  _363
REMARK  151  A    between atoms: _366  and  _368
REMARK  152  A    between atoms: _368  and  _369
REMARK  153  A    between atoms: _368  and  _371
REMARK  154  A    between atoms: _371  and  _372
REMARK  155  A    between atoms: _375  and  _377
REMARK  156  A    between atoms: _377  and  _378
REMARK  157  A    between atoms: _377  and  _380
REMARK  158  A    between atoms: _380  and  _381
REMARK  159  A    between atoms: _384  and  _386
REMARK  160  A    between atoms: _386  and  _387
REMARK  161  A    between atoms: _386  and  _389
REMARK  162  A    between atoms: _392  and  _394
REMARK  163  A    between atoms: _394  and  _395
REMARK  164  A    between atoms: _394  and  _397
REMARK  165  A    between atoms: _397  and  _398
REMARK  166  A    between atoms: _398  and  _399
REMARK  167  A    between atoms: _399  and  _400
REMARK  168  A    between atoms: _400  and  _401
REMARK  169  A    between atoms: _405  and  _407
REMARK  170  A    between atoms: _407  and  _408
REMARK  171  A    between atoms: _407  and  _410
REMARK  172  A    between atoms: _410  and  _411
REMARK  173  A    between atoms: _411  and  _412
REMARK  174  A    between atoms: _414  and  _416
REMARK  175  A    between atoms: _416  and  _417
REMARK  176  A    between atoms: _416  and  _419
REMARK  177  A    between atoms: _419  and  _420
REMARK  178  A    between atoms: _423  and  _425
REMARK  179  A    between atoms: _425  and  _426
REMARK  180  A    between atoms: _428  and  _430
REMARK  181  A    between atoms: _430  and  _431
REMARK  182  A    between atoms: _433  and  _435
REMARK  183  A    between atoms: _435  and  _436
REMARK  184  A    between atoms: _435  and  _438
REMARK  185  A    between atoms: _438  and  _439
REMARK  186  A    between atoms: _442  and  _444
REMARK  187  A    between atoms: _444  and  _445
REMARK  188  A    between atoms: _447  and  _449
REMARK  189  A    between atoms: _449  and  _450
REMARK  190  A    between atoms: _452  and  _454
REMARK  191  A    between atoms: _454  and  _455
REMARK  192  A    between atoms: _454  and  _457
REMARK  193  A    between atoms: _457  and  _458
REMARK  194  A    between atoms: _464  and  _466
REMARK  195  A    between atoms: _466  and  _467
REMARK  196  A    between atoms: _466  and  _469
REMARK  197  A    between atoms: _469  and  _470
REMARK  198  A    between atoms: _473  and  _475
REMARK  199  A    between atoms: _475  and  _476
REMARK  200  A    between atoms: _475  and  _478
REMARK  201  A    between atoms: _481  and  _483
REMARK  202  A    between atoms: _483  and  _484
REMARK  203  A    between atoms: _483  and  _486
REMARK  204  A    between atoms: _486  and  _487
REMARK  205  A    between atoms: _491  and  _492
REMARK  206  A    between atoms: _497  and  _499
REMARK  207  A    between atoms: _499  and  _500
REMARK  208  A    between atoms: _499  and  _502
REMARK  209  A    between atoms: _502  and  _503
REMARK  210  A    between atoms: _507  and  _508
REMARK  211  A    between atoms: _513  and  _515
REMARK  212  A    between atoms: _515  and  _516
REMARK  213  A    between atoms: _515  and  _518
REMARK  214  A    between atoms: _521  and  _523
REMARK  215  A    between atoms: _523  and  _524
REMARK  216  A    between atoms: _523  and  _526
REMARK  217  A    between atoms: _526  and  _527
REMARK  218  A    between atoms: _532  and  _534
REMARK  219  A    between atoms: _534  and  _535
REMARK  220  A    between atoms: _534  and  _537
REMARK  221  A    between atoms: _537  and  _538
REMARK  222  A    between atoms: _541  and  _543
REMARK  223  A    between atoms: _543  and  _544
REMARK  224  A    between atoms: _543  and  _546
REMARK  225  A    between atoms: _546  and  _547
REMARK  226  A    between atoms: _550  and  _552
REMARK  227  A    between atoms: _552  and  _553
REMARK  228  A    between atoms: _555  and  _557
REMARK  229  A    between atoms: _557  and  _558
REMARK  230  A    between atoms: _557  and  _560
REMARK  231  A    between atoms: _560  and  _561
REMARK  232  A    between atoms: _561  and  _562
REMARK  233  A    between atoms: _562  and  _563
REMARK  234  A    between atoms: _572  and  _574
REMARK  235  A    between atoms: _574  and  _575
REMARK  236  A    between atoms: _574  and  _577
REMARK  237  A    between atoms: _577  and  _578
REMARK                            x       y       z     vdW  Elec       q    Type
REMARK                         _______ _______ _______ _____ _____    ______ ____
ROOT
ATOM      1  O   HOH     1      22.895 -27.061 -21.471  0.00  0.00    +0.000 OA
ENDROOT
TORSDOF 0
