REMARK  Name = ../refined-set-2016/1m0b/1m0b_pocket.pdb
REMARK  232 active torsions:
REMARK  status: ('A' for Active; 'I' for Inactive)
REMARK    1  A    between atoms: _1  and  _3
REMARK    2  A    between atoms: _3  and  _4
REMARK    3  A    between atoms: _3  and  _6
REMARK    4  A    between atoms: _6  and  _7
REMARK    5  A    between atoms: _7  and  _8
REMARK    6  A    between atoms: _8  and  _9
REMARK    7  A    between atoms: _18  and  _20
REMARK    8  A    between atoms: _20  and  _21
REMARK    9  A    between atoms: _20  and  _23
REMARK   10  A    between atoms: _23  and  _24
REMARK   11  A    between atoms: _27  and  _29
REMARK   12  A    between atoms: _29  and  _30
REMARK   13  A    between atoms: _29  and  _32
REMARK   14  A    between atoms: _32  and  _33
REMARK   15  A    between atoms: _36  and  _38
REMARK   16  A    between atoms: _38  and  _39
REMARK   17  A    between atoms: _38  and  _41
REMARK   18  A    between atoms: _41  and  _42
REMARK   19  A    between atoms: _45  and  _47
REMARK   20  A    between atoms: _47  and  _48
REMARK   21  A    between atoms: _47  and  _50
REMARK   22  A    between atoms: _50  and  _51
REMARK   23  A    between atoms: _54  and  _56
REMARK   24  A    between atoms: _56  and  _57
REMARK   25  A    between atoms: _59  and  _61
REMARK   26  A    between atoms: _61  and  _62
REMARK   27  A    between atoms: _65  and  _67
REMARK   28  A    between atoms: _67  and  _68
REMARK   29  A    between atoms: _67  and  _70
REMARK   30  A    between atoms: _70  and  _71
REMARK   31  A    between atoms: _74  and  _76
REMARK   32  A    between atoms: _76  and  _77
REMARK   33  A    between atoms: _76  and  _79
REMARK   34  A    between atoms: _79  and  _80
REMARK   35  A    between atoms: _83  and  _85
REMARK   36  A    between atoms: _85  and  _86
REMARK   37  A    between atoms: _85  and  _88
REMARK   38  A    between atoms: _88  and  _89
REMARK   39  A    between atoms: _92  and  _94
REMARK   40  A    between atoms: _94  and  _95
REMARK   41  A    between atoms: _94  and  _97
REMARK   42  A    between atoms: _100  and  _102
REMARK   43  A    between atoms: _102  and  _103
REMARK   44  A    between atoms: _102  and  _105
REMARK   45  A    between atoms: _105  and  _106
REMARK   46  A    between atoms: _106  and  _107
REMARK   47  A    between atoms: _107  and  _108
REMARK   48  A    between atoms: _108  and  _109
REMARK   49  A    between atoms: _113  and  _115
REMARK   50  A    between atoms: _115  and  _116
REMARK   51  A    between atoms: _115  and  _118
REMARK   52  A    between atoms: _118  and  _119
REMARK   53  A    between atoms: _119  and  _120
REMARK   54  A    between atoms: _122  and  _124
REMARK   55  A    between atoms: _124  and  _125
REMARK   56  A    between atoms: _124  and  _127
REMARK   57  A    between atoms: _127  and  _128
REMARK   58  A    between atoms: _131  and  _133
REMARK   59  A    between atoms: _133  and  _134
REMARK   60  A    between atoms: _136  and  _138
REMARK   61  A    between atoms: _138  and  _139
REMARK   62  A    between atoms: _141  and  _143
REMARK   63  A    between atoms: _143  and  _144
REMARK   64  A    between atoms: _143  and  _146
REMARK   65  A    between atoms: _146  and  _147
REMARK   66  A    between atoms: _150  and  _152
REMARK   67  A    between atoms: _152  and  _153
REMARK   68  A    between atoms: _155  and  _157
REMARK   69  A    between atoms: _157  and  _158
REMARK   70  A    between atoms: _160  and  _162
REMARK   71  A    between atoms: _162  and  _163
REMARK   72  A    between atoms: _162  and  _165
REMARK   73  A    between atoms: _165  and  _166
REMARK   74  A    between atoms: _172  and  _174
REMARK   75  A    between atoms: _174  and  _175
REMARK   76  A    between atoms: _174  and  _177
REMARK   77  A    between atoms: _177  and  _178
REMARK   78  A    between atoms: _181  and  _183
REMARK   79  A    between atoms: _183  and  _184
REMARK   80  A    between atoms: _183  and  _186
REMARK   81  A    between atoms: _189  and  _191
REMARK   82  A    between atoms: _191  and  _192
REMARK   83  A    between atoms: _191  and  _194
REMARK   84  A    between atoms: _194  and  _195
REMARK   85  A    between atoms: _198  and  _200
REMARK   86  A    between atoms: _200  and  _201
REMARK   87  A    between atoms: _200  and  _203
REMARK   88  A    between atoms: _203  and  _204
REMARK   89  A    between atoms: _208  and  _209
REMARK   90  A    between atoms: _214  and  _216
REMARK   91  A    between atoms: _216  and  _217
REMARK   92  A    between atoms: _216  and  _219
REMARK   93  A    between atoms: _222  and  _224
REMARK   94  A    between atoms: _224  and  _225
REMARK   95  A    between atoms: _224  and  _227
REMARK   96  A    between atoms: _227  and  _228
REMARK   97  A    between atoms: _233  and  _235
REMARK   98  A    between atoms: _235  and  _236
REMARK   99  A    between atoms: _235  and  _238
REMARK  100  A    between atoms: _238  and  _239
REMARK  101  A    between atoms: _242  and  _244
REMARK  102  A    between atoms: _244  and  _245
REMARK  103  A    between atoms: _244  and  _247
REMARK  104  A    between atoms: _247  and  _248
REMARK  105  A    between atoms: _251  and  _253
REMARK  106  A    between atoms: _253  and  _254
REMARK  107  A    between atoms: _256  and  _258
REMARK  108  A    between atoms: _258  and  _259
REMARK  109  A    between atoms: _258  and  _261
REMARK  110  A    between atoms: _261  and  _262
REMARK  111  A    between atoms: _262  and  _263
REMARK  112  A    between atoms: _263  and  _264
REMARK  113  A    between atoms: _273  and  _275
REMARK  114  A    between atoms: _275  and  _276
REMARK  115  A    between atoms: _275  and  _278
REMARK  116  A    between atoms: _278  and  _279
REMARK  117  A    between atoms: _284  and  _286
REMARK  118  A    between atoms: _286  and  _287
REMARK  119  A    between atoms: _286  and  _289
REMARK  120  A    between atoms: _289  and  _290
REMARK  121  A    between atoms: _290  and  _291
REMARK  122  A    between atoms: _291  and  _292
REMARK  123  A    between atoms: _301  and  _303
REMARK  124  A    between atoms: _303  and  _304
REMARK  125  A    between atoms: _303  and  _306
REMARK  126  A    between atoms: _306  and  _307
REMARK  127  A    between atoms: _310  and  _312
REMARK  128  A    between atoms: _312  and  _313
REMARK  129  A    between atoms: _312  and  _315
REMARK  130  A    between atoms: _315  and  _316
REMARK  131  A    between atoms: _319  and  _321
REMARK  132  A    between atoms: _321  and  _322
REMARK  133  A    between atoms: _321  and  _324
REMARK  134  A    between atoms: _324  and  _325
REMARK  135  A    between atoms: _328  and  _330
REMARK  136  A    between atoms: _330  and  _331
REMARK  137  A    between atoms: _330  and  _333
REMARK  138  A    between atoms: _333  and  _334
REMARK  139  A    between atoms: _337  and  _339
REMARK  140  A    between atoms: _339  and  _340
REMARK  141  A    between atoms: _342  and  _344
REMARK  142  A    between atoms: _344  and  _345
REMARK  143  A    between atoms: _348  and  _350
REMARK  144  A    between atoms: _350  and  _351
REMARK  145  A    between atoms: _350  and  _353
REMARK  146  A    between atoms: _353  and  _354
REMARK  147  A    between atoms: _357  and  _359
REMARK  148  A    between atoms: _359  and  _360
REMARK  149  A    between atoms: _359  and  _362
REMARK  150  A    between atoms: _362  and  _363
REMARK  151  A    between atoms: _366  and  _368
REMARK  152  A    between atoms: _368  and  _369
REMARK  153  A    between atoms: _368  and  _371
REMARK  154  A    between atoms: _371  and  _372
REMARK  155  A    between atoms: _375  and  _377
REMARK  156  A    between atoms: _377  and  _378
REMARK  157  A    between atoms: _377  and  _380
REMARK  158  A    between atoms: _383  and  _385
REMARK  159  A    between atoms: _385  and  _386
REMARK  160  A    between atoms: _385  and  _388
REMARK  161  A    between atoms: _388  and  _389
REMARK  162  A    between atoms: _392  and  _394
REMARK  163  A    between atoms: _394  and  _395
REMARK  164  A    between atoms: _394  and  _397
REMARK  165  A    between atoms: _397  and  _398
REMARK  166  A    between atoms: _398  and  _399
REMARK  167  A    between atoms: _399  and  _400
REMARK  168  A    between atoms: _400  and  _401
REMARK  169  A    between atoms: _405  and  _407
REMARK  170  A    between atoms: _407  and  _408
REMARK  171  A    between atoms: _407  and  _410
REMARK  172  A    between atoms: _410  and  _411
REMARK  173  A    between atoms: _414  and  _416
REMARK  174  A    between atoms: _416  and  _417
REMARK  175  A    between atoms: _419  and  _421
REMARK  176  A    between atoms: _421  and  _422
REMARK  177  A    between atoms: _424  and  _426
REMARK  178  A    between atoms: _426  and  _427
REMARK  179  A    between atoms: _426  and  _429
REMARK  180  A    between atoms: _429  and  _430
REMARK  181  A    between atoms: _433  and  _435
REMARK  182  A    between atoms: _435  and  _436
REMARK  183  A    between atoms: _438  and  _440
REMARK  184  A    between atoms: _440  and  _441
REMARK  185  A    between atoms: _443  and  _445
REMARK  186  A    between atoms: _445  and  _446
REMARK  187  A    between atoms: _445  and  _448
REMARK  188  A    between atoms: _448  and  _449
REMARK  189  A    between atoms: _455  and  _457
REMARK  190  A    between atoms: _457  and  _458
REMARK  191  A    between atoms: _457  and  _460
REMARK  192  A    between atoms: _460  and  _461
REMARK  193  A    between atoms: _464  and  _466
REMARK  194  A    between atoms: _466  and  _467
REMARK  195  A    between atoms: _466  and  _469
REMARK  196  A    between atoms: _472  and  _474
REMARK  197  A    between atoms: _474  and  _475
REMARK  198  A    between atoms: _474  and  _477
REMARK  199  A    between atoms: _477  and  _478
REMARK  200  A    between atoms: _482  and  _483
REMARK  201  A    between atoms: _488  and  _490
REMARK  202  A    between atoms: _490  and  _491
REMARK  203  A    between atoms: _490  and  _493
REMARK  204  A    between atoms: _493  and  _494
REMARK  205  A    between atoms: _498  and  _499
REMARK  206  A    between atoms: _504  and  _506
REMARK  207  A    between atoms: _506  and  _507
REMARK  208  A    between atoms: _506  and  _509
REMARK  209  A    between atoms: _512  and  _514
REMARK  210  A    between atoms: _514  and  _515
REMARK  211  A    between atoms: _514  and  _517
REMARK  212  A    between atoms: _517  and  _518
REMARK  213  A    between atoms: _523  and  _525
REMARK  214  A    between atoms: _525  and  _526
REMARK  215  A    between atoms: _525  and  _528
REMARK  216  A    between atoms: _528  and  _529
REMARK  217  A    between atoms: _532  and  _534
REMARK  218  A    between atoms: _534  and  _535
REMARK  219  A    between atoms: _534  and  _537
REMARK  220  A    between atoms: _537  and  _538
REMARK  221  A    between atoms: _541  and  _543
REMARK  222  A    between atoms: _543  and  _544
REMARK  223  A    between atoms: _546  and  _548
REMARK  224  A    between atoms: _548  and  _549
REMARK  225  A    between atoms: _548  and  _551
REMARK  226  A    between atoms: _551  and  _552
REMARK  227  A    between atoms: _552  and  _553
REMARK  228  A    between atoms: _553  and  _554
REMARK  229  A    between atoms: _563  and  _565
REMARK  230  A    between atoms: _565  and  _566
REMARK  231  A    between atoms: _565  and  _568
REMARK  232  A    between atoms: _568  and  _569
REMARK                            x       y       z     vdW  Elec       q    Type
REMARK                         _______ _______ _______ _____ _____    ______ ____
ROOT
ATOM      1  NE  ARG A   1      -3.528  23.201  -5.900  0.00  0.00    -0.265 N 
ATOM      2  CZ  ARG A   1      -2.651  22.207  -5.716  0.00  0.00    +0.342 C 
ATOM      3  NH2 ARG A   1      -1.914  22.131  -4.607  0.00  0.00    -0.292 N 
ATOM      4 HH21 ARG A   1      -2.015  22.853  -3.865  0.00  0.00    +0.255 HD
ATOM      5 HH22 ARG A   1      -1.238  21.350  -4.484  0.00  0.00    +0.255 HD
ATOM      6  NH1 ARG A   1      -2.512  21.274  -6.657  0.00  0.00    -0.292 N 
ATOM      7 HH11 ARG A   1      -1.833  20.498  -6.523  0.00  0.00    +0.255 HD
ATOM      8 HH12 ARG A   1      -3.082  21.322  -7.525  0.00  0.00    +0.255 HD
ATOM      9  HE  ARG A   1      -4.066  23.193  -6.790  0.00  0.00    +0.259 HD
ENDROOT
BRANCH   1  10
ATOM     10  CD  ARG A   1      -3.806  24.302  -4.969  0.00  0.00    +0.174 C 
BRANCH  10  11
ATOM     11  CG  ARG A   1      -4.782  25.299  -5.591  0.00  0.00    +0.045 C 
BRANCH  11  12
ATOM     12  CB  ARG A   1      -5.005  26.521  -4.727  0.00  0.00    +0.029 C 
BRANCH  12  13
ATOM     13  CA  ARG A   1      -6.218  27.385  -5.131  0.00  0.00    +0.133 C 
BRANCH  13  14
ATOM     14  N   ARG A   1      -5.998  28.090  -6.415  0.00  0.00    -0.239 NA
ATOM     15  H   ARG A   1      -5.127  27.919  -6.957  0.00  0.00    +0.142 HD
ENDBRANCH  13  14
BRANCH  13  16
ATOM     16  C   ARG A   1      -6.448  28.453  -4.047  0.00  0.00    +0.224 C 
ATOM     17  O   ARG A   1      -5.770  29.481  -4.050  0.00  0.00    -0.287 OA
ENDBRANCH  13  16
ENDBRANCH  12  13
ENDBRANCH  11  12
ENDBRANCH  10  11
ENDBRANCH   1  10
TORSDOF 6
REMARK  Name = ../refined-set-2016/1m0b/1m0b_pocket.pdb
REMARK  232 active torsions:
REMARK  status: ('A' for Active; 'I' for Inactive)
REMARK    1  A    between atoms: _1  and  _3
REMARK    2  A    between atoms: _3  and  _4
REMARK    3  A    between atoms: _3  and  _6
REMARK    4  A    between atoms: _6  and  _7
REMARK    5  A    between atoms: _7  and  _8
REMARK    6  A    between atoms: _8  and  _9
REMARK    7  A    between atoms: _18  and  _20
REMARK    8  A    between atoms: _20  and  _21
REMARK    9  A    between atoms: _20  and  _23
REMARK   10  A    between atoms: _23  and  _24
REMARK   11  A    between atoms: _27  and  _29
REMARK   12  A    between atoms: _29  and  _30
REMARK   13  A    between atoms: _29  and  _32
REMARK   14  A    between atoms: _32  and  _33
REMARK   15  A    between atoms: _36  and  _38
REMARK   16  A    between atoms: _38  and  _39
REMARK   17  A    between atoms: _38  and  _41
REMARK   18  A    between atoms: _41  and  _42
REMARK   19  A    between atoms: _45  and  _47
REMARK   20  A    between atoms: _47  and  _48
REMARK   21  A    between atoms: _47  and  _50
REMARK   22  A    between atoms: _50  and  _51
REMARK   23  A    between atoms: _54  and  _56
REMARK   24  A    between atoms: _56  and  _57
REMARK   25  A    between atoms: _59  and  _61
REMARK   26  A    between atoms: _61  and  _62
REMARK   27  A    between atoms: _65  and  _67
REMARK   28  A    between atoms: _67  and  _68
REMARK   29  A    between atoms: _67  and  _70
REMARK   30  A    between atoms: _70  and  _71
REMARK   31  A    between atoms: _74  and  _76
REMARK   32  A    between atoms: _76  and  _77
REMARK   33  A    between atoms: _76  and  _79
REMARK   34  A    between atoms: _79  and  _80
REMARK   35  A    between atoms: _83  and  _85
REMARK   36  A    between atoms: _85  and  _86
REMARK   37  A    between atoms: _85  and  _88
REMARK   38  A    between atoms: _88  and  _89
REMARK   39  A    between atoms: _92  and  _94
REMARK   40  A    between atoms: _94  and  _95
REMARK   41  A    between atoms: _94  and  _97
REMARK   42  A    between atoms: _100  and  _102
REMARK   43  A    between atoms: _102  and  _103
REMARK   44  A    between atoms: _102  and  _105
REMARK   45  A    between atoms: _105  and  _106
REMARK   46  A    between atoms: _106  and  _107
REMARK   47  A    between atoms: _107  and  _108
REMARK   48  A    between atoms: _108  and  _109
REMARK   49  A    between atoms: _113  and  _115
REMARK   50  A    between atoms: _115  and  _116
REMARK   51  A    between atoms: _115  and  _118
REMARK   52  A    between atoms: _118  and  _119
REMARK   53  A    between atoms: _119  and  _120
REMARK   54  A    between atoms: _122  and  _124
REMARK   55  A    between atoms: _124  and  _125
REMARK   56  A    between atoms: _124  and  _127
REMARK   57  A    between atoms: _127  and  _128
REMARK   58  A    between atoms: _131  and  _133
REMARK   59  A    between atoms: _133  and  _134
REMARK   60  A    between atoms: _136  and  _138
REMARK   61  A    between atoms: _138  and  _139
REMARK   62  A    between atoms: _141  and  _143
REMARK   63  A    between atoms: _143  and  _144
REMARK   64  A    between atoms: _143  and  _146
REMARK   65  A    between atoms: _146  and  _147
REMARK   66  A    between atoms: _150  and  _152
REMARK   67  A    between atoms: _152  and  _153
REMARK   68  A    between atoms: _155  and  _157
REMARK   69  A    between atoms: _157  and  _158
REMARK   70  A    between atoms: _160  and  _162
REMARK   71  A    between atoms: _162  and  _163
REMARK   72  A    between atoms: _162  and  _165
REMARK   73  A    between atoms: _165  and  _166
REMARK   74  A    between atoms: _172  and  _174
REMARK   75  A    between atoms: _174  and  _175
REMARK   76  A    between atoms: _174  and  _177
REMARK   77  A    between atoms: _177  and  _178
REMARK   78  A    between atoms: _181  and  _183
REMARK   79  A    between atoms: _183  and  _184
REMARK   80  A    between atoms: _183  and  _186
REMARK   81  A    between atoms: _189  and  _191
REMARK   82  A    between atoms: _191  and  _192
REMARK   83  A    between atoms: _191  and  _194
REMARK   84  A    between atoms: _194  and  _195
REMARK   85  A    between atoms: _198  and  _200
REMARK   86  A    between atoms: _200  and  _201
REMARK   87  A    between atoms: _200  and  _203
REMARK   88  A    between atoms: _203  and  _204
REMARK   89  A    between atoms: _208  and  _209
REMARK   90  A    between atoms: _214  and  _216
REMARK   91  A    between atoms: _216  and  _217
REMARK   92  A    between atoms: _216  and  _219
REMARK   93  A    between atoms: _222  and  _224
REMARK   94  A    between atoms: _224  and  _225
REMARK   95  A    between atoms: _224  and  _227
REMARK   96  A    between atoms: _227  and  _228
REMARK   97  A    between atoms: _233  and  _235
REMARK   98  A    between atoms: _235  and  _236
REMARK   99  A    between atoms: _235  and  _238
REMARK  100  A    between atoms: _238  and  _239
REMARK  101  A    between atoms: _242  and  _244
REMARK  102  A    between atoms: _244  and  _245
REMARK  103  A    between atoms: _244  and  _247
REMARK  104  A    between atoms: _247  and  _248
REMARK  105  A    between atoms: _251  and  _253
REMARK  106  A    between atoms: _253  and  _254
REMARK  107  A    between atoms: _256  and  _258
REMARK  108  A    between atoms: _258  and  _259
REMARK  109  A    between atoms: _258  and  _261
REMARK  110  A    between atoms: _261  and  _262
REMARK  111  A    between atoms: _262  and  _263
REMARK  112  A    between atoms: _263  and  _264
REMARK  113  A    between atoms: _273  and  _275
REMARK  114  A    between atoms: _275  and  _276
REMARK  115  A    between atoms: _275  and  _278
REMARK  116  A    between atoms: _278  and  _279
REMARK  117  A    between atoms: _284  and  _286
REMARK  118  A    between atoms: _286  and  _287
REMARK  119  A    between atoms: _286  and  _289
REMARK  120  A    between atoms: _289  and  _290
REMARK  121  A    between atoms: _290  and  _291
REMARK  122  A    between atoms: _291  and  _292
REMARK  123  A    between atoms: _301  and  _303
REMARK  124  A    between atoms: _303  and  _304
REMARK  125  A    between atoms: _303  and  _306
REMARK  126  A    between atoms: _306  and  _307
REMARK  127  A    between atoms: _310  and  _312
REMARK  128  A    between atoms: _312  and  _313
REMARK  129  A    between atoms: _312  and  _315
REMARK  130  A    between atoms: _315  and  _316
REMARK  131  A    between atoms: _319  and  _321
REMARK  132  A    between atoms: _321  and  _322
REMARK  133  A    between atoms: _321  and  _324
REMARK  134  A    between atoms: _324  and  _325
REMARK  135  A    between atoms: _328  and  _330
REMARK  136  A    between atoms: _330  and  _331
REMARK  137  A    between atoms: _330  and  _333
REMARK  138  A    between atoms: _333  and  _334
REMARK  139  A    between atoms: _337  and  _339
REMARK  140  A    between atoms: _339  and  _340
REMARK  141  A    between atoms: _342  and  _344
REMARK  142  A    between atoms: _344  and  _345
REMARK  143  A    between atoms: _348  and  _350
REMARK  144  A    between atoms: _350  and  _351
REMARK  145  A    between atoms: _350  and  _353
REMARK  146  A    between atoms: _353  and  _354
REMARK  147  A    between atoms: _357  and  _359
REMARK  148  A    between atoms: _359  and  _360
REMARK  149  A    between atoms: _359  and  _362
REMARK  150  A    between atoms: _362  and  _363
REMARK  151  A    between atoms: _366  and  _368
REMARK  152  A    between atoms: _368  and  _369
REMARK  153  A    between atoms: _368  and  _371
REMARK  154  A    between atoms: _371  and  _372
REMARK  155  A    between atoms: _375  and  _377
REMARK  156  A    between atoms: _377  and  _378
REMARK  157  A    between atoms: _377  and  _380
REMARK  158  A    between atoms: _383  and  _385
REMARK  159  A    between atoms: _385  and  _386
REMARK  160  A    between atoms: _385  and  _388
REMARK  161  A    between atoms: _388  and  _389
REMARK  162  A    between atoms: _392  and  _394
REMARK  163  A    between atoms: _394  and  _395
REMARK  164  A    between atoms: _394  and  _397
REMARK  165  A    between atoms: _397  and  _398
REMARK  166  A    between atoms: _398  and  _399
REMARK  167  A    between atoms: _399  and  _400
REMARK  168  A    between atoms: _400  and  _401
REMARK  169  A    between atoms: _405  and  _407
REMARK  170  A    between atoms: _407  and  _408
REMARK  171  A    between atoms: _407  and  _410
REMARK  172  A    between atoms: _410  and  _411
REMARK  173  A    between atoms: _414  and  _416
REMARK  174  A    between atoms: _416  and  _417
REMARK  175  A    between atoms: _419  and  _421
REMARK  176  A    between atoms: _421  and  _422
REMARK  177  A    between atoms: _424  and  _426
REMARK  178  A    between atoms: _426  and  _427
REMARK  179  A    between atoms: _426  and  _429
REMARK  180  A    between atoms: _429  and  _430
REMARK  181  A    between atoms: _433  and  _435
REMARK  182  A    between atoms: _435  and  _436
REMARK  183  A    between atoms: _438  and  _440
REMARK  184  A    between atoms: _440  and  _441
REMARK  185  A    between atoms: _443  and  _445
REMARK  186  A    between atoms: _445  and  _446
REMARK  187  A    between atoms: _445  and  _448
REMARK  188  A    between atoms: _448  and  _449
REMARK  189  A    between atoms: _455  and  _457
REMARK  190  A    between atoms: _457  and  _458
REMARK  191  A    between atoms: _457  and  _460
REMARK  192  A    between atoms: _460  and  _461
REMARK  193  A    between atoms: _464  and  _466
REMARK  194  A    between atoms: _466  and  _467
REMARK  195  A    between atoms: _466  and  _469
REMARK  196  A    between atoms: _472  and  _474
REMARK  197  A    between atoms: _474  and  _475
REMARK  198  A    between atoms: _474  and  _477
REMARK  199  A    between atoms: _477  and  _478
REMARK  200  A    between atoms: _482  and  _483
REMARK  201  A    between atoms: _488  and  _490
REMARK  202  A    between atoms: _490  and  _491
REMARK  203  A    between atoms: _490  and  _493
REMARK  204  A    between atoms: _493  and  _494
REMARK  205  A    between atoms: _498  and  _499
REMARK  206  A    between atoms: _504  and  _506
REMARK  207  A    between atoms: _506  and  _507
REMARK  208  A    between atoms: _506  and  _509
REMARK  209  A    between atoms: _512  and  _514
REMARK  210  A    between atoms: _514  and  _515
REMARK  211  A    between atoms: _514  and  _517
REMARK  212  A    between atoms: _517  and  _518
REMARK  213  A    between atoms: _523  and  _525
REMARK  214  A    between atoms: _525  and  _526
REMARK  215  A    between atoms: _525  and  _528
REMARK  216  A    between atoms: _528  and  _529
REMARK  217  A    between atoms: _532  and  _534
REMARK  218  A    between atoms: _534  and  _535
REMARK  219  A    between atoms: _534  and  _537
REMARK  220  A    between atoms: _537  and  _538
REMARK  221  A    between atoms: _541  and  _543
REMARK  222  A    between atoms: _543  and  _544
REMARK  223  A    between atoms: _546  and  _548
REMARK  224  A    between atoms: _548  and  _549
REMARK  225  A    between atoms: _548  and  _551
REMARK  226  A    between atoms: _551  and  _552
REMARK  227  A    between atoms: _552  and  _553
REMARK  228  A    between atoms: _553  and  _554
REMARK  229  A    between atoms: _563  and  _565
REMARK  230  A    between atoms: _565  and  _566
REMARK  231  A    between atoms: _565  and  _568
REMARK  232  A    between atoms: _568  and  _569
REMARK                            x       y       z     vdW  Elec       q    Type
REMARK                         _______ _______ _______ _____ _____    ______ ____
ROOT
ATOM      1  C   GLY A   5     -13.512  18.672   2.806  0.00  0.00    +0.243 C 
ATOM      2  N   ALA A   6     -12.889  19.353   3.774  0.00  0.00    -0.297 N 
ATOM      3  H   ALA A   6     -12.939  20.392   3.780  0.00  0.00    +0.150 HD
ATOM      4  O   GLY A   5     -13.440  17.444   2.709  0.00  0.00    -0.273 OA
ENDROOT
BRANCH   2   5
ATOM      5  CA  ALA A   6     -12.135  18.663   4.829  0.00  0.00    +0.149 C 
ATOM      6  CB  ALA A   6     -10.707  19.214   4.943  0.00  0.00    +0.031 C 
BRANCH   5   7
ATOM      7  C   ALA A   6     -12.890  18.904   6.125  0.00  0.00    +0.241 C 
ATOM      8  N   ASP A   7     -13.186  17.824   6.849  0.00  0.00    -0.297 N 
ATOM      9  H   ASP A   7     -12.900  16.886   6.501  0.00  0.00    +0.150 HD
ATOM     10  O   ALA A   6     -13.220  20.049   6.448  0.00  0.00    -0.273 OA
BRANCH   8  11
ATOM     11  CA  ASP A   7     -13.902  17.925   8.120  0.00  0.00    +0.160 C 
BRANCH  11  12
ATOM     12  C   ASP A   7     -12.931  18.509   9.112  0.00  0.00    +0.241 C 
ATOM     13  O   ASP A   7     -13.323  19.309   9.969  0.00  0.00    -0.273 OA
ATOM     14  N   ASP A   8     -11.670  18.069   8.976  0.00  0.00    -0.297 N 
ATOM     15  H   ASP A   8     -11.472  17.413   8.194  0.00  0.00    +0.150 HD
BRANCH  14  16
ATOM     16  CA  ASP A   8     -10.559  18.441   9.841  0.00  0.00    +0.160 C 
BRANCH  16  17
ATOM     17  C   ASP A   8      -9.493  19.350   9.210  0.00  0.00    +0.241 C 
ATOM     18  N   THR A   9      -8.614  19.865  10.069  0.00  0.00    -0.295 N 
ATOM     19  H   THR A   9      -8.720  19.638  11.078  0.00  0.00    +0.150 HD
ATOM     20  O   ASP A   8      -9.469  19.576   7.993  0.00  0.00    -0.273 OA
BRANCH  18  21
ATOM     21  CA  THR A   9      -7.511  20.731   9.667  0.00  0.00    +0.176 C 
BRANCH  21  22
ATOM     22  C   THR A   9      -6.269  19.882   9.828  0.00  0.00    +0.243 C 
ATOM     23  O   THR A   9      -5.992  19.395  10.920  0.00  0.00    -0.273 OA
ATOM     24  N   VAL A  10      -5.540  19.687   8.734  0.00  0.00    -0.298 N 
ATOM     25  H   VAL A  10      -5.842  20.132   7.844  0.00  0.00    +0.150 HD
BRANCH  24  26
ATOM     26  CA  VAL A  10      -4.325  18.867   8.738  0.00  0.00    +0.137 C 
BRANCH  26  27
ATOM     27  CB  VAL A  10      -4.477  17.613   7.824  0.00  0.00    +0.026 C 
ATOM     28  CG2 VAL A  10      -3.332  16.648   8.084  0.00  0.00    +0.002 C 
ATOM     29  CG1 VAL A  10      -5.816  16.952   8.051  0.00  0.00    +0.002 C 
ENDBRANCH  26  27
BRANCH  26  30
ATOM     30  C   VAL A  10      -3.131  19.680   8.223  0.00  0.00    +0.227 C 
ATOM     31  O   VAL A  10      -3.128  20.129   7.085  0.00  0.00    -0.286 OA
ENDBRANCH  26  30
ENDBRANCH  24  26
ENDBRANCH  21  22
BRANCH  21  32
ATOM     32  CB  THR A   9      -7.403  21.954  10.590  0.00  0.00    +0.137 C 
ATOM     33  CG2 THR A   9      -6.139  22.755  10.309  0.00  0.00    +0.034 C 
BRANCH  32  34
ATOM     34  OG1 THR A   9      -8.557  22.772  10.409  0.00  0.00    -0.382 OA
ATOM     35  HG1 THR A   9      -9.368  22.251  10.636  0.00  0.00    +0.210 HD
ENDBRANCH  32  34
ENDBRANCH  21  32
ENDBRANCH  18  21
ENDBRANCH  16  17
BRANCH  16  36
ATOM     36  CB  ASP A   8      -9.860  17.179  10.341  0.00  0.00    +0.143 C 
BRANCH  36  37
ATOM     37  CG  ASP A   8     -10.824  16.112  10.796  0.00  0.00    +0.367 C 
ATOM     38  OD2 ASP A   8     -11.736  16.410  11.592  0.00  0.00    -0.246 OA
ATOM     39  OD1 ASP A   8     -10.662  14.954  10.358  0.00  0.00    -0.246 OA
ENDBRANCH  36  37
ENDBRANCH  16  36
ENDBRANCH  14  16
ENDBRANCH  11  12
BRANCH  11  40
ATOM     40  CB  ASP A   7     -14.309  16.552   8.681  0.00  0.00    +0.143 C 
BRANCH  40  41
ATOM     41  CG  ASP A   7     -15.235  15.779   7.782  0.00  0.00    +0.367 C 
ATOM     42  OD2 ASP A   7     -15.091  14.543   7.746  0.00  0.00    -0.246 OA
ATOM     43  OD1 ASP A   7     -16.113  16.383   7.140  0.00  0.00    -0.246 OA
ENDBRANCH  40  41
ENDBRANCH  11  40
ENDBRANCH   8  11
ENDBRANCH   5   7
ENDBRANCH   2   5
BRANCH   1  44
ATOM     44  CA  GLY A   5     -14.310  19.463   1.776  0.00  0.00    +0.176 C 
BRANCH  44  47
ATOM     45  C   THR A   4     -14.943  21.687   2.504  0.00  0.00    +0.243 C 
ATOM     46  O   THR A   4     -15.939  21.260   3.102  0.00  0.00    -0.273 OA
ATOM     47  N   GLY A   5     -14.101  20.893   1.847  0.00  0.00    -0.295 N 
ATOM     48  H   GLY A   5     -13.274  21.310   1.374  0.00  0.00    +0.150 HD
BRANCH  45  49
ATOM     49  CA  THR A   4     -14.600  23.175   2.507  0.00  0.00    +0.176 C 
BRANCH  49  52
ATOM     50  C   ASP A   3     -12.175  22.933   2.775  0.00  0.00    +0.241 C 
ATOM     51  O   ASP A   3     -12.324  22.222   3.749  0.00  0.00    -0.273 OA
ATOM     52  N   THR A   4     -13.209  23.423   2.086  0.00  0.00    -0.295 N 
ATOM     53  H   THR A   4     -13.029  23.992   1.234  0.00  0.00    +0.150 HD
BRANCH  50  54
ATOM     54  CA  ASP A   3     -10.760  23.245   2.276  0.00  0.00    +0.160 C 
BRANCH  54  56
ATOM     55  C   LEU A   2      -9.861  25.486   2.105  0.00  0.00    +0.241 C 
ATOM     56  N   ASP A   3     -10.105  24.417   2.853  0.00  0.00    -0.297 N 
ATOM     57  H   ASP A   3      -9.828  24.413   3.856  0.00  0.00    +0.150 HD
ATOM     58  O   LEU A   2     -10.224  25.581   0.915  0.00  0.00    -0.273 OA
BRANCH  55  59
ATOM     59  CA  LEU A   2      -9.094  26.619   2.775  0.00  0.00    +0.149 C 
BRANCH  59  62
ATOM     60  C   LEU A   1      -6.882  25.694   2.442  0.00  0.00    +0.238 C 
ATOM     61  O   LEU A   1      -7.061  24.926   3.369  0.00  0.00    -0.274 OA
ATOM     62  N   LEU A   2      -7.790  26.601   2.098  0.00  0.00    -0.297 N 
ATOM     63  H   LEU A   2      -7.579  27.295   1.353  0.00  0.00    +0.150 HD
BRANCH  60  64
ATOM     64  CA  LEU A   1      -5.562  25.678   1.690  0.00  0.00    +0.145 C 
BRANCH  64  65
ATOM     65  N   LEU A   1      -4.510  25.643   2.665  0.00  0.00    -0.238 NA
ATOM     66  H   LEU A   1      -4.248  24.745   3.120  0.00  0.00    +0.142 HD
ENDBRANCH  64  65
BRANCH  64  67
ATOM     67  CB  LEU A   1      -5.411  24.430   0.811  0.00  0.00    +0.026 C 
BRANCH  67  68
ATOM     68  CG  LEU A   1      -6.238  24.115  -0.439  0.00  0.00    +0.002 C 
ATOM     69  CD2 LEU A   1      -6.080  22.646  -0.748  0.00  0.00    +0.000 C 
ATOM     70  CD1 LEU A   1      -5.758  24.921  -1.620  0.00  0.00    +0.000 C 
ENDBRANCH  67  68
ENDBRANCH  64  67
ENDBRANCH  60  64
ENDBRANCH  59  62
BRANCH  59  71
ATOM     71  CB  LEU A   2      -9.811  27.934   2.528  0.00  0.00    +0.029 C 
BRANCH  71  72
ATOM     72  CG  LEU A   2      -9.044  29.145   3.015  0.00  0.00    +0.002 C 
ATOM     73  CD2 LEU A   2      -8.742  29.005   4.502  0.00  0.00    +0.000 C 
ATOM     74  CD1 LEU A   2      -9.870  30.353   2.758  0.00  0.00    +0.000 C 
ENDBRANCH  71  72
ENDBRANCH  59  71
ENDBRANCH  55  59
ENDBRANCH  54  56
BRANCH  54  75
ATOM     75  CB  ASP A   3      -9.838  22.050   2.511  0.00  0.00    +0.143 C 
BRANCH  75  76
ATOM     76  CG  ASP A   3     -10.211  20.852   1.704  0.00  0.00    +0.367 C 
ATOM     77  OD2 ASP A   3      -9.459  19.862   1.771  0.00  0.00    -0.246 OA
ATOM     78  OD1 ASP A   3     -11.240  20.893   1.013  0.00  0.00    -0.246 OA
ENDBRANCH  75  76
ENDBRANCH  54  75
ENDBRANCH  50  54
ENDBRANCH  49  52
BRANCH  49  79
ATOM     79  CB  THR A   4     -15.626  23.929   1.608  0.00  0.00    +0.137 C 
ATOM     80  CG2 THR A   4     -15.397  25.463   1.655  0.00  0.00    +0.034 C 
BRANCH  79  81
ATOM     81  OG1 THR A   4     -15.493  23.488   0.254  0.00  0.00    -0.382 OA
ATOM     82  HG1 THR A   4     -15.667  22.514   0.207  0.00  0.00    +0.210 HD
ENDBRANCH  79  81
ENDBRANCH  49  79
ENDBRANCH  45  49
ENDBRANCH  44  47
ENDBRANCH   1  44
TORSDOF 35
REMARK  Name = ../refined-set-2016/1m0b/1m0b_pocket.pdb
REMARK  232 active torsions:
REMARK  status: ('A' for Active; 'I' for Inactive)
REMARK    1  A    between atoms: _1  and  _3
REMARK    2  A    between atoms: _3  and  _4
REMARK    3  A    between atoms: _3  and  _6
REMARK    4  A    between atoms: _6  and  _7
REMARK    5  A    between atoms: _7  and  _8
REMARK    6  A    between atoms: _8  and  _9
REMARK    7  A    between atoms: _18  and  _20
REMARK    8  A    between atoms: _20  and  _21
REMARK    9  A    between atoms: _20  and  _23
REMARK   10  A    between atoms: _23  and  _24
REMARK   11  A    between atoms: _27  and  _29
REMARK   12  A    between atoms: _29  and  _30
REMARK   13  A    between atoms: _29  and  _32
REMARK   14  A    between atoms: _32  and  _33
REMARK   15  A    between atoms: _36  and  _38
REMARK   16  A    between atoms: _38  and  _39
REMARK   17  A    between atoms: _38  and  _41
REMARK   18  A    between atoms: _41  and  _42
REMARK   19  A    between atoms: _45  and  _47
REMARK   20  A    between atoms: _47  and  _48
REMARK   21  A    between atoms: _47  and  _50
REMARK   22  A    between atoms: _50  and  _51
REMARK   23  A    between atoms: _54  and  _56
REMARK   24  A    between atoms: _56  and  _57
REMARK   25  A    between atoms: _59  and  _61
REMARK   26  A    between atoms: _61  and  _62
REMARK   27  A    between atoms: _65  and  _67
REMARK   28  A    between atoms: _67  and  _68
REMARK   29  A    between atoms: _67  and  _70
REMARK   30  A    between atoms: _70  and  _71
REMARK   31  A    between atoms: _74  and  _76
REMARK   32  A    between atoms: _76  and  _77
REMARK   33  A    between atoms: _76  and  _79
REMARK   34  A    between atoms: _79  and  _80
REMARK   35  A    between atoms: _83  and  _85
REMARK   36  A    between atoms: _85  and  _86
REMARK   37  A    between atoms: _85  and  _88
REMARK   38  A    between atoms: _88  and  _89
REMARK   39  A    between atoms: _92  and  _94
REMARK   40  A    between atoms: _94  and  _95
REMARK   41  A    between atoms: _94  and  _97
REMARK   42  A    between atoms: _100  and  _102
REMARK   43  A    between atoms: _102  and  _103
REMARK   44  A    between atoms: _102  and  _105
REMARK   45  A    between atoms: _105  and  _106
REMARK   46  A    between atoms: _106  and  _107
REMARK   47  A    between atoms: _107  and  _108
REMARK   48  A    between atoms: _108  and  _109
REMARK   49  A    between atoms: _113  and  _115
REMARK   50  A    between atoms: _115  and  _116
REMARK   51  A    between atoms: _115  and  _118
REMARK   52  A    between atoms: _118  and  _119
REMARK   53  A    between atoms: _119  and  _120
REMARK   54  A    between atoms: _122  and  _124
REMARK   55  A    between atoms: _124  and  _125
REMARK   56  A    between atoms: _124  and  _127
REMARK   57  A    between atoms: _127  and  _128
REMARK   58  A    between atoms: _131  and  _133
REMARK   59  A    between atoms: _133  and  _134
REMARK   60  A    between atoms: _136  and  _138
REMARK   61  A    between atoms: _138  and  _139
REMARK   62  A    between atoms: _141  and  _143
REMARK   63  A    between atoms: _143  and  _144
REMARK   64  A    between atoms: _143  and  _146
REMARK   65  A    between atoms: _146  and  _147
REMARK   66  A    between atoms: _150  and  _152
REMARK   67  A    between atoms: _152  and  _153
REMARK   68  A    between atoms: _155  and  _157
REMARK   69  A    between atoms: _157  and  _158
REMARK   70  A    between atoms: _160  and  _162
REMARK   71  A    between atoms: _162  and  _163
REMARK   72  A    between atoms: _162  and  _165
REMARK   73  A    between atoms: _165  and  _166
REMARK   74  A    between atoms: _172  and  _174
REMARK   75  A    between atoms: _174  and  _175
REMARK   76  A    between atoms: _174  and  _177
REMARK   77  A    between atoms: _177  and  _178
REMARK   78  A    between atoms: _181  and  _183
REMARK   79  A    between atoms: _183  and  _184
REMARK   80  A    between atoms: _183  and  _186
REMARK   81  A    between atoms: _189  and  _191
REMARK   82  A    between atoms: _191  and  _192
REMARK   83  A    between atoms: _191  and  _194
REMARK   84  A    between atoms: _194  and  _195
REMARK   85  A    between atoms: _198  and  _200
REMARK   86  A    between atoms: _200  and  _201
REMARK   87  A    between atoms: _200  and  _203
REMARK   88  A    between atoms: _203  and  _204
REMARK   89  A    between atoms: _208  and  _209
REMARK   90  A    between atoms: _214  and  _216
REMARK   91  A    between atoms: _216  and  _217
REMARK   92  A    between atoms: _216  and  _219
REMARK   93  A    between atoms: _222  and  _224
REMARK   94  A    between atoms: _224  and  _225
REMARK   95  A    between atoms: _224  and  _227
REMARK   96  A    between atoms: _227  and  _228
REMARK   97  A    between atoms: _233  and  _235
REMARK   98  A    between atoms: _235  and  _236
REMARK   99  A    between atoms: _235  and  _238
REMARK  100  A    between atoms: _238  and  _239
REMARK  101  A    between atoms: _242  and  _244
REMARK  102  A    between atoms: _244  and  _245
REMARK  103  A    between atoms: _244  and  _247
REMARK  104  A    between atoms: _247  and  _248
REMARK  105  A    between atoms: _251  and  _253
REMARK  106  A    between atoms: _253  and  _254
REMARK  107  A    between atoms: _256  and  _258
REMARK  108  A    between atoms: _258  and  _259
REMARK  109  A    between atoms: _258  and  _261
REMARK  110  A    between atoms: _261  and  _262
REMARK  111  A    between atoms: _262  and  _263
REMARK  112  A    between atoms: _263  and  _264
REMARK  113  A    between atoms: _273  and  _275
REMARK  114  A    between atoms: _275  and  _276
REMARK  115  A    between atoms: _275  and  _278
REMARK  116  A    between atoms: _278  and  _279
REMARK  117  A    between atoms: _284  and  _286
REMARK  118  A    between atoms: _286  and  _287
REMARK  119  A    between atoms: _286  and  _289
REMARK  120  A    between atoms: _289  and  _290
REMARK  121  A    between atoms: _290  and  _291
REMARK  122  A    between atoms: _291  and  _292
REMARK  123  A    between atoms: _301  and  _303
REMARK  124  A    between atoms: _303  and  _304
REMARK  125  A    between atoms: _303  and  _306
REMARK  126  A    between atoms: _306  and  _307
REMARK  127  A    between atoms: _310  and  _312
REMARK  128  A    between atoms: _312  and  _313
REMARK  129  A    between atoms: _312  and  _315
REMARK  130  A    between atoms: _315  and  _316
REMARK  131  A    between atoms: _319  and  _321
REMARK  132  A    between atoms: _321  and  _322
REMARK  133  A    between atoms: _321  and  _324
REMARK  134  A    between atoms: _324  and  _325
REMARK  135  A    between atoms: _328  and  _330
REMARK  136  A    between atoms: _330  and  _331
REMARK  137  A    between atoms: _330  and  _333
REMARK  138  A    between atoms: _333  and  _334
REMARK  139  A    between atoms: _337  and  _339
REMARK  140  A    between atoms: _339  and  _340
REMARK  141  A    between atoms: _342  and  _344
REMARK  142  A    between atoms: _344  and  _345
REMARK  143  A    between atoms: _348  and  _350
REMARK  144  A    between atoms: _350  and  _351
REMARK  145  A    between atoms: _350  and  _353
REMARK  146  A    between atoms: _353  and  _354
REMARK  147  A    between atoms: _357  and  _359
REMARK  148  A    between atoms: _359  and  _360
REMARK  149  A    between atoms: _359  and  _362
REMARK  150  A    between atoms: _362  and  _363
REMARK  151  A    between atoms: _366  and  _368
REMARK  152  A    between atoms: _368  and  _369
REMARK  153  A    between atoms: _368  and  _371
REMARK  154  A    between atoms: _371  and  _372
REMARK  155  A    between atoms: _375  and  _377
REMARK  156  A    between atoms: _377  and  _378
REMARK  157  A    between atoms: _377  and  _380
REMARK  158  A    between atoms: _383  and  _385
REMARK  159  A    between atoms: _385  and  _386
REMARK  160  A    between atoms: _385  and  _388
REMARK  161  A    between atoms: _388  and  _389
REMARK  162  A    between atoms: _392  and  _394
REMARK  163  A    between atoms: _394  and  _395
REMARK  164  A    between atoms: _394  and  _397
REMARK  165  A    between atoms: _397  and  _398
REMARK  166  A    between atoms: _398  and  _399
REMARK  167  A    between atoms: _399  and  _400
REMARK  168  A    between atoms: _400  and  _401
REMARK  169  A    between atoms: _405  and  _407
REMARK  170  A    between atoms: _407  and  _408
REMARK  171  A    between atoms: _407  and  _410
REMARK  172  A    between atoms: _410  and  _411
REMARK  173  A    between atoms: _414  and  _416
REMARK  174  A    between atoms: _416  and  _417
REMARK  175  A    between atoms: _419  and  _421
REMARK  176  A    between atoms: _421  and  _422
REMARK  177  A    between atoms: _424  and  _426
REMARK  178  A    between atoms: _426  and  _427
REMARK  179  A    between atoms: _426  and  _429
REMARK  180  A    between atoms: _429  and  _430
REMARK  181  A    between atoms: _433  and  _435
REMARK  182  A    between atoms: _435  and  _436
REMARK  183  A    between atoms: _438  and  _440
REMARK  184  A    between atoms: _440  and  _441
REMARK  185  A    between atoms: _443  and  _445
REMARK  186  A    between atoms: _445  and  _446
REMARK  187  A    between atoms: _445  and  _448
REMARK  188  A    between atoms: _448  and  _449
REMARK  189  A    between atoms: _455  and  _457
REMARK  190  A    between atoms: _457  and  _458
REMARK  191  A    between atoms: _457  and  _460
REMARK  192  A    between atoms: _460  and  _461
REMARK  193  A    between atoms: _464  and  _466
REMARK  194  A    between atoms: _466  and  _467
REMARK  195  A    between atoms: _466  and  _469
REMARK  196  A    between atoms: _472  and  _474
REMARK  197  A    between atoms: _474  and  _475
REMARK  198  A    between atoms: _474  and  _477
REMARK  199  A    between atoms: _477  and  _478
REMARK  200  A    between atoms: _482  and  _483
REMARK  201  A    between atoms: _488  and  _490
REMARK  202  A    between atoms: _490  and  _491
REMARK  203  A    between atoms: _490  and  _493
REMARK  204  A    between atoms: _493  and  _494
REMARK  205  A    between atoms: _498  and  _499
REMARK  206  A    between atoms: _504  and  _506
REMARK  207  A    between atoms: _506  and  _507
REMARK  208  A    between atoms: _506  and  _509
REMARK  209  A    between atoms: _512  and  _514
REMARK  210  A    between atoms: _514  and  _515
REMARK  211  A    between atoms: _514  and  _517
REMARK  212  A    between atoms: _517  and  _518
REMARK  213  A    between atoms: _523  and  _525
REMARK  214  A    between atoms: _525  and  _526
REMARK  215  A    between atoms: _525  and  _528
REMARK  216  A    between atoms: _528  and  _529
REMARK  217  A    between atoms: _532  and  _534
REMARK  218  A    between atoms: _534  and  _535
REMARK  219  A    between atoms: _534  and  _537
REMARK  220  A    between atoms: _537  and  _538
REMARK  221  A    between atoms: _541  and  _543
REMARK  222  A    between atoms: _543  and  _544
REMARK  223  A    between atoms: _546  and  _548
REMARK  224  A    between atoms: _548  and  _549
REMARK  225  A    between atoms: _548  and  _551
REMARK  226  A    between atoms: _551  and  _552
REMARK  227  A    between atoms: _552  and  _553
REMARK  228  A    between atoms: _553  and  _554
REMARK  229  A    between atoms: _563  and  _565
REMARK  230  A    between atoms: _565  and  _566
REMARK  231  A    between atoms: _565  and  _568
REMARK  232  A    between atoms: _568  and  _569
REMARK                            x       y       z     vdW  Elec       q    Type
REMARK                         _______ _______ _______ _____ _____    ______ ____
ROOT
ATOM      1  C   GLY A   5      -8.931  10.552   1.183  0.00  0.00    +0.243 C 
ATOM      2  O   GLY A   5      -9.397   9.416   1.255  0.00  0.00    -0.273 OA
ATOM      3  N   ILE A   6      -8.694  11.144   0.022  0.00  0.00    -0.297 N 
ATOM      4  H   ILE A   6      -8.277  12.095  -0.035  0.00  0.00    +0.150 HD
ENDROOT
BRANCH   3   5
ATOM      5  CA  ILE A   6      -9.055  10.378  -1.186  0.00  0.00    +0.149 C 
BRANCH   5   6
ATOM      6  C   ILE A   6      -8.265   9.076  -1.495  0.00  0.00    +0.241 C 
ATOM      7  N   GLY A   7      -6.941   9.077  -1.291  0.00  0.00    -0.295 N 
ATOM      8  H   GLY A   7      -6.482   9.931  -0.913  0.00  0.00    +0.150 HD
ATOM      9  O   ILE A   6      -8.864   8.080  -1.924  0.00  0.00    -0.273 OA
BRANCH   7  10
ATOM     10  CA  GLY A   7      -6.127   7.894  -1.592  0.00  0.00    +0.176 C 
BRANCH  10  11
ATOM     11  C   GLY A   7      -5.925   6.850  -0.487  0.00  0.00    +0.243 C 
ATOM     12  N   GLY A   8      -6.589   7.052   0.633  0.00  0.00    -0.295 N 
ATOM     13  H   GLY A   8      -7.214   7.877   0.735  0.00  0.00    +0.150 HD
ATOM     14  O   GLY A   7      -5.221   5.857  -0.643  0.00  0.00    -0.273 OA
BRANCH  12  15
ATOM     15  CA  GLY A   8      -6.437   6.115   1.712  0.00  0.00    +0.176 C 
BRANCH  15  16
ATOM     16  C   GLY A   8      -6.338   6.864   3.008  0.00  0.00    +0.243 C 
ATOM     17  N   PHE A   9      -5.660   6.262   3.953  0.00  0.00    -0.297 N 
ATOM     18  H   PHE A   9      -5.207   5.344   3.772  0.00  0.00    +0.150 HD
ATOM     19  O   GLY A   8      -6.830   7.978   3.161  0.00  0.00    -0.273 OA
BRANCH  17  20
ATOM     20  CA  PHE A   9      -5.549   6.896   5.262  0.00  0.00    +0.153 C 
BRANCH  20  21
ATOM     21  C   PHE A   9      -4.116   7.334   5.542  0.00  0.00    +0.241 C 
ATOM     22  N   ILE A  10      -3.921   8.184   6.556  0.00  0.00    -0.298 N 
ATOM     23  H   ILE A  10      -4.746   8.574   7.054  0.00  0.00    +0.150 HD
ATOM     24  O   PHE A   9      -3.182   6.896   4.870  0.00  0.00    -0.273 OA
BRANCH  22  25
ATOM     25  CA  ILE A  10      -2.571   8.582   6.986  0.00  0.00    +0.137 C 
BRANCH  25  26
ATOM     26  C   ILE A  10      -2.619   8.732   8.491  0.00  0.00    +0.227 C 
ATOM     27  O   ILE A  10      -3.663   9.046   9.056  0.00  0.00    -0.286 OA
ENDBRANCH  25  26
BRANCH  25  28
ATOM     28  CB  ILE A  10      -2.059   9.933   6.414  0.00  0.00    +0.026 C 
ATOM     29  CG2 ILE A  10      -1.994   9.867   4.908  0.00  0.00    +0.002 C 
BRANCH  28  30
ATOM     30  CG1 ILE A  10      -2.907  11.097   6.939  0.00  0.00    +0.002 C 
ATOM     31  CD1 ILE A  10      -2.210  12.442   6.836  0.00  0.00    +0.000 C 
ENDBRANCH  28  30
ENDBRANCH  25  28
ENDBRANCH  22  25
ENDBRANCH  20  21
BRANCH  20  32
ATOM     32  CB  PHE A   9      -5.968   5.894   6.339  0.00  0.00    +0.055 C 
BRANCH  32  33
ATOM     33  CG  PHE A   9      -4.857   4.987   6.766  0.00  0.00    -0.020 A 
ATOM     34  CD2 PHE A   9      -4.401   5.000   8.080  0.00  0.00    -0.004 A 
ATOM     35  CE2 PHE A   9      -3.301   4.246   8.457  0.00  0.00    -0.000 A 
ATOM     36  CZ  PHE A   9      -2.643   3.468   7.519  0.00  0.00    -0.000 A 
ATOM     37  CE1 PHE A   9      -3.089   3.439   6.205  0.00  0.00    -0.000 A 
ATOM     38  CD1 PHE A   9      -4.194   4.195   5.835  0.00  0.00    -0.004 A 
ENDBRANCH  32  33
ENDBRANCH  20  32
ENDBRANCH  17  20
ENDBRANCH  15  16
ENDBRANCH  12  15
ENDBRANCH  10  11
ENDBRANCH   7  10
ENDBRANCH   5   6
BRANCH   5  39
ATOM     39  CB  ILE A   6      -9.018  11.249  -2.483  0.00  0.00    +0.027 C 
ATOM     40  CG2 ILE A   6      -7.744  11.025  -3.268  0.00  0.00    +0.002 C 
BRANCH  39  41
ATOM     41  CG1 ILE A   6     -10.133  10.815  -3.429  0.00  0.00    +0.002 C 
ATOM     42  CD1 ILE A   6     -11.495  11.369  -3.081  0.00  0.00    +0.000 C 
ENDBRANCH  39  41
ENDBRANCH   5  39
ENDBRANCH   3   5
BRANCH   1  43
ATOM     43  CA  GLY A   5      -8.590  11.310   2.437  0.00  0.00    +0.176 C 
BRANCH  43  46
ATOM     44  C   GLY A   4      -9.006  10.541   4.675  0.00  0.00    +0.243 C 
ATOM     45  O   GLY A   4      -9.538  11.599   4.985  0.00  0.00    -0.273 OA
ATOM     46  N   GLY A   5      -8.509  10.311   3.470  0.00  0.00    -0.295 N 
ATOM     47  H   GLY A   5      -8.055   9.398   3.267  0.00  0.00    +0.150 HD
BRANCH  44  48
ATOM     48  CA  GLY A   4      -8.876   9.395   5.657  0.00  0.00    +0.176 C 
BRANCH  48  51
ATOM     49  C   ILE A   3      -7.576   9.630   7.681  0.00  0.00    +0.241 C 
ATOM     50  O   ILE A   3      -6.519   9.366   7.093  0.00  0.00    -0.273 OA
ATOM     51  N   GLY A   4      -8.758   9.702   7.070  0.00  0.00    -0.295 N 
ATOM     52  H   GLY A   4      -9.602   9.980   7.610  0.00  0.00    +0.150 HD
BRANCH  49  53
ATOM     53  CA  ILE A   3      -7.579   9.938   9.168  0.00  0.00    +0.149 C 
BRANCH  53  56
ATOM     54  C   MET A   2      -6.775   8.546  11.003  0.00  0.00    +0.241 C 
ATOM     55  O   MET A   2      -7.883   8.567  11.552  0.00  0.00    -0.273 OA
ATOM     56  N   ILE A   3      -6.520   9.207   9.871  0.00  0.00    -0.297 N 
ATOM     57  H   ILE A   3      -5.555   9.203   9.482  0.00  0.00    +0.150 HD
BRANCH  54  58
ATOM     58  CA  MET A   2      -5.631   7.782  11.661  0.00  0.00    +0.149 C 
BRANCH  58  60
ATOM     59  C   LYS A   1      -4.745   8.876  13.611  0.00  0.00    +0.238 C 
ATOM     60  N   MET A   2      -5.607   8.008  13.101  0.00  0.00    -0.297 N 
ATOM     61  H   MET A   2      -6.261   7.492  13.723  0.00  0.00    +0.150 HD
ATOM     62  O   LYS A   1      -3.851   9.406  12.951  0.00  0.00    -0.274 OA
BRANCH  59  63
ATOM     63  CA  LYS A   1      -4.878   9.122  15.090  0.00  0.00    +0.145 C 
BRANCH  63  64
ATOM     64  N   LYS A   1      -3.598   9.190  15.779  0.00  0.00    -0.238 NA
ATOM     65  H   LYS A   1      -2.711   9.219  15.236  0.00  0.00    +0.142 HD
ENDBRANCH  63  64
BRANCH  63  66
ATOM     66  CB  LYS A   1      -5.709  10.403  15.292  0.00  0.00    +0.026 C 
BRANCH  66  67
ATOM     67  CG  LYS A   1      -7.115  10.329  14.652  0.00  0.00    -0.000 C 
BRANCH  67  68
ATOM     68  CD  LYS A   1      -7.986  11.552  14.946  0.00  0.00    -0.024 C 
BRANCH  68  69
ATOM     69  CE  LYS A   1      -9.398  11.396  14.382  0.00  0.00    -0.086 C 
BRANCH  69  70
ATOM     70  NZ  LYS A   1     -10.228  12.634  14.525  0.00  0.00    +0.380 N 
ATOM     71  HZ1 LYS A   1     -10.316  12.877  15.532  0.00  0.00    -0.089 HD
ATOM     72  HZ2 LYS A   1     -11.173  12.465  14.124  0.00  0.00    -0.089 HD
ATOM     73  HZ3 LYS A   1      -9.770  13.417  14.017  0.00  0.00    -0.089 HD
ENDBRANCH  69  70
ENDBRANCH  68  69
ENDBRANCH  67  68
ENDBRANCH  66  67
ENDBRANCH  63  66
ENDBRANCH  59  63
ENDBRANCH  58  60
BRANCH  58  74
ATOM     74  CB  MET A   2      -5.806   6.273  11.336  0.00  0.00    +0.041 C 
BRANCH  74  75
ATOM     75  CG  MET A   2      -4.652   5.394  11.702  0.00  0.00    +0.060 C 
BRANCH  75  76
ATOM     76  SD  MET A   2      -5.060   3.640  11.592  0.00  0.00    -0.139 S 
ATOM     77  CE  MET A   2      -5.485   3.333  13.302  0.00  0.00    +0.069 C 
ENDBRANCH  75  76
ENDBRANCH  74  75
ENDBRANCH  58  74
ENDBRANCH  54  58
ENDBRANCH  53  56
BRANCH  53  78
ATOM     78  CB  ILE A   3      -7.462  11.476   9.330  0.00  0.00    +0.027 C 
ATOM     79  CG2 ILE A   3      -7.409  11.821  10.794  0.00  0.00    +0.002 C 
BRANCH  78  80
ATOM     80  CG1 ILE A   3      -6.233  12.014   8.595  0.00  0.00    +0.002 C 
ATOM     81  CD1 ILE A   3      -6.186  13.522   8.545  0.00  0.00    +0.000 C 
ENDBRANCH  78  80
ENDBRANCH  53  78
ENDBRANCH  49  53
ENDBRANCH  48  51
ENDBRANCH  44  48
ENDBRANCH  43  46
ENDBRANCH   1  43
TORSDOF 36
REMARK  Name = ../refined-set-2016/1m0b/1m0b_pocket.pdb
REMARK  232 active torsions:
REMARK  status: ('A' for Active; 'I' for Inactive)
REMARK    1  A    between atoms: _1  and  _3
REMARK    2  A    between atoms: _3  and  _4
REMARK    3  A    between atoms: _3  and  _6
REMARK    4  A    between atoms: _6  and  _7
REMARK    5  A    between atoms: _7  and  _8
REMARK    6  A    between atoms: _8  and  _9
REMARK    7  A    between atoms: _18  and  _20
REMARK    8  A    between atoms: _20  and  _21
REMARK    9  A    between atoms: _20  and  _23
REMARK   10  A    between atoms: _23  and  _24
REMARK   11  A    between atoms: _27  and  _29
REMARK   12  A    between atoms: _29  and  _30
REMARK   13  A    between atoms: _29  and  _32
REMARK   14  A    between atoms: _32  and  _33
REMARK   15  A    between atoms: _36  and  _38
REMARK   16  A    between atoms: _38  and  _39
REMARK   17  A    between atoms: _38  and  _41
REMARK   18  A    between atoms: _41  and  _42
REMARK   19  A    between atoms: _45  and  _47
REMARK   20  A    between atoms: _47  and  _48
REMARK   21  A    between atoms: _47  and  _50
REMARK   22  A    between atoms: _50  and  _51
REMARK   23  A    between atoms: _54  and  _56
REMARK   24  A    between atoms: _56  and  _57
REMARK   25  A    between atoms: _59  and  _61
REMARK   26  A    between atoms: _61  and  _62
REMARK   27  A    between atoms: _65  and  _67
REMARK   28  A    between atoms: _67  and  _68
REMARK   29  A    between atoms: _67  and  _70
REMARK   30  A    between atoms: _70  and  _71
REMARK   31  A    between atoms: _74  and  _76
REMARK   32  A    between atoms: _76  and  _77
REMARK   33  A    between atoms: _76  and  _79
REMARK   34  A    between atoms: _79  and  _80
REMARK   35  A    between atoms: _83  and  _85
REMARK   36  A    between atoms: _85  and  _86
REMARK   37  A    between atoms: _85  and  _88
REMARK   38  A    between atoms: _88  and  _89
REMARK   39  A    between atoms: _92  and  _94
REMARK   40  A    between atoms: _94  and  _95
REMARK   41  A    between atoms: _94  and  _97
REMARK   42  A    between atoms: _100  and  _102
REMARK   43  A    between atoms: _102  and  _103
REMARK   44  A    between atoms: _102  and  _105
REMARK   45  A    between atoms: _105  and  _106
REMARK   46  A    between atoms: _106  and  _107
REMARK   47  A    between atoms: _107  and  _108
REMARK   48  A    between atoms: _108  and  _109
REMARK   49  A    between atoms: _113  and  _115
REMARK   50  A    between atoms: _115  and  _116
REMARK   51  A    between atoms: _115  and  _118
REMARK   52  A    between atoms: _118  and  _119
REMARK   53  A    between atoms: _119  and  _120
REMARK   54  A    between atoms: _122  and  _124
REMARK   55  A    between atoms: _124  and  _125
REMARK   56  A    between atoms: _124  and  _127
REMARK   57  A    between atoms: _127  and  _128
REMARK   58  A    between atoms: _131  and  _133
REMARK   59  A    between atoms: _133  and  _134
REMARK   60  A    between atoms: _136  and  _138
REMARK   61  A    between atoms: _138  and  _139
REMARK   62  A    between atoms: _141  and  _143
REMARK   63  A    between atoms: _143  and  _144
REMARK   64  A    between atoms: _143  and  _146
REMARK   65  A    between atoms: _146  and  _147
REMARK   66  A    between atoms: _150  and  _152
REMARK   67  A    between atoms: _152  and  _153
REMARK   68  A    between atoms: _155  and  _157
REMARK   69  A    between atoms: _157  and  _158
REMARK   70  A    between atoms: _160  and  _162
REMARK   71  A    between atoms: _162  and  _163
REMARK   72  A    between atoms: _162  and  _165
REMARK   73  A    between atoms: _165  and  _166
REMARK   74  A    between atoms: _172  and  _174
REMARK   75  A    between atoms: _174  and  _175
REMARK   76  A    between atoms: _174  and  _177
REMARK   77  A    between atoms: _177  and  _178
REMARK   78  A    between atoms: _181  and  _183
REMARK   79  A    between atoms: _183  and  _184
REMARK   80  A    between atoms: _183  and  _186
REMARK   81  A    between atoms: _189  and  _191
REMARK   82  A    between atoms: _191  and  _192
REMARK   83  A    between atoms: _191  and  _194
REMARK   84  A    between atoms: _194  and  _195
REMARK   85  A    between atoms: _198  and  _200
REMARK   86  A    between atoms: _200  and  _201
REMARK   87  A    between atoms: _200  and  _203
REMARK   88  A    between atoms: _203  and  _204
REMARK   89  A    between atoms: _208  and  _209
REMARK   90  A    between atoms: _214  and  _216
REMARK   91  A    between atoms: _216  and  _217
REMARK   92  A    between atoms: _216  and  _219
REMARK   93  A    between atoms: _222  and  _224
REMARK   94  A    between atoms: _224  and  _225
REMARK   95  A    between atoms: _224  and  _227
REMARK   96  A    between atoms: _227  and  _228
REMARK   97  A    between atoms: _233  and  _235
REMARK   98  A    between atoms: _235  and  _236
REMARK   99  A    between atoms: _235  and  _238
REMARK  100  A    between atoms: _238  and  _239
REMARK  101  A    between atoms: _242  and  _244
REMARK  102  A    between atoms: _244  and  _245
REMARK  103  A    between atoms: _244  and  _247
REMARK  104  A    between atoms: _247  and  _248
REMARK  105  A    between atoms: _251  and  _253
REMARK  106  A    between atoms: _253  and  _254
REMARK  107  A    between atoms: _256  and  _258
REMARK  108  A    between atoms: _258  and  _259
REMARK  109  A    between atoms: _258  and  _261
REMARK  110  A    between atoms: _261  and  _262
REMARK  111  A    between atoms: _262  and  _263
REMARK  112  A    between atoms: _263  and  _264
REMARK  113  A    between atoms: _273  and  _275
REMARK  114  A    between atoms: _275  and  _276
REMARK  115  A    between atoms: _275  and  _278
REMARK  116  A    between atoms: _278  and  _279
REMARK  117  A    between atoms: _284  and  _286
REMARK  118  A    between atoms: _286  and  _287
REMARK  119  A    between atoms: _286  and  _289
REMARK  120  A    between atoms: _289  and  _290
REMARK  121  A    between atoms: _290  and  _291
REMARK  122  A    between atoms: _291  and  _292
REMARK  123  A    between atoms: _301  and  _303
REMARK  124  A    between atoms: _303  and  _304
REMARK  125  A    between atoms: _303  and  _306
REMARK  126  A    between atoms: _306  and  _307
REMARK  127  A    between atoms: _310  and  _312
REMARK  128  A    between atoms: _312  and  _313
REMARK  129  A    between atoms: _312  and  _315
REMARK  130  A    between atoms: _315  and  _316
REMARK  131  A    between atoms: _319  and  _321
REMARK  132  A    between atoms: _321  and  _322
REMARK  133  A    between atoms: _321  and  _324
REMARK  134  A    between atoms: _324  and  _325
REMARK  135  A    between atoms: _328  and  _330
REMARK  136  A    between atoms: _330  and  _331
REMARK  137  A    between atoms: _330  and  _333
REMARK  138  A    between atoms: _333  and  _334
REMARK  139  A    between atoms: _337  and  _339
REMARK  140  A    between atoms: _339  and  _340
REMARK  141  A    between atoms: _342  and  _344
REMARK  142  A    between atoms: _344  and  _345
REMARK  143  A    between atoms: _348  and  _350
REMARK  144  A    between atoms: _350  and  _351
REMARK  145  A    between atoms: _350  and  _353
REMARK  146  A    between atoms: _353  and  _354
REMARK  147  A    between atoms: _357  and  _359
REMARK  148  A    between atoms: _359  and  _360
REMARK  149  A    between atoms: _359  and  _362
REMARK  150  A    between atoms: _362  and  _363
REMARK  151  A    between atoms: _366  and  _368
REMARK  152  A    between atoms: _368  and  _369
REMARK  153  A    between atoms: _368  and  _371
REMARK  154  A    between atoms: _371  and  _372
REMARK  155  A    between atoms: _375  and  _377
REMARK  156  A    between atoms: _377  and  _378
REMARK  157  A    between atoms: _377  and  _380
REMARK  158  A    between atoms: _383  and  _385
REMARK  159  A    between atoms: _385  and  _386
REMARK  160  A    between atoms: _385  and  _388
REMARK  161  A    between atoms: _388  and  _389
REMARK  162  A    between atoms: _392  and  _394
REMARK  163  A    between atoms: _394  and  _395
REMARK  164  A    between atoms: _394  and  _397
REMARK  165  A    between atoms: _397  and  _398
REMARK  166  A    between atoms: _398  and  _399
REMARK  167  A    between atoms: _399  and  _400
REMARK  168  A    between atoms: _400  and  _401
REMARK  169  A    between atoms: _405  and  _407
REMARK  170  A    between atoms: _407  and  _408
REMARK  171  A    between atoms: _407  and  _410
REMARK  172  A    between atoms: _410  and  _411
REMARK  173  A    between atoms: _414  and  _416
REMARK  174  A    between atoms: _416  and  _417
REMARK  175  A    between atoms: _419  and  _421
REMARK  176  A    between atoms: _421  and  _422
REMARK  177  A    between atoms: _424  and  _426
REMARK  178  A    between atoms: _426  and  _427
REMARK  179  A    between atoms: _426  and  _429
REMARK  180  A    between atoms: _429  and  _430
REMARK  181  A    between atoms: _433  and  _435
REMARK  182  A    between atoms: _435  and  _436
REMARK  183  A    between atoms: _438  and  _440
REMARK  184  A    between atoms: _440  and  _441
REMARK  185  A    between atoms: _443  and  _445
REMARK  186  A    between atoms: _445  and  _446
REMARK  187  A    between atoms: _445  and  _448
REMARK  188  A    between atoms: _448  and  _449
REMARK  189  A    between atoms: _455  and  _457
REMARK  190  A    between atoms: _457  and  _458
REMARK  191  A    between atoms: _457  and  _460
REMARK  192  A    between atoms: _460  and  _461
REMARK  193  A    between atoms: _464  and  _466
REMARK  194  A    between atoms: _466  and  _467
REMARK  195  A    between atoms: _466  and  _469
REMARK  196  A    between atoms: _472  and  _474
REMARK  197  A    between atoms: _474  and  _475
REMARK  198  A    between atoms: _474  and  _477
REMARK  199  A    between atoms: _477  and  _478
REMARK  200  A    between atoms: _482  and  _483
REMARK  201  A    between atoms: _488  and  _490
REMARK  202  A    between atoms: _490  and  _491
REMARK  203  A    between atoms: _490  and  _493
REMARK  204  A    between atoms: _493  and  _494
REMARK  205  A    between atoms: _498  and  _499
REMARK  206  A    between atoms: _504  and  _506
REMARK  207  A    between atoms: _506  and  _507
REMARK  208  A    between atoms: _506  and  _509
REMARK  209  A    between atoms: _512  and  _514
REMARK  210  A    between atoms: _514  and  _515
REMARK  211  A    between atoms: _514  and  _517
REMARK  212  A    between atoms: _517  and  _518
REMARK  213  A    between atoms: _523  and  _525
REMARK  214  A    between atoms: _525  and  _526
REMARK  215  A    between atoms: _525  and  _528
REMARK  216  A    between atoms: _528  and  _529
REMARK  217  A    between atoms: _532  and  _534
REMARK  218  A    between atoms: _534  and  _535
REMARK  219  A    between atoms: _534  and  _537
REMARK  220  A    between atoms: _537  and  _538
REMARK  221  A    between atoms: _541  and  _543
REMARK  222  A    between atoms: _543  and  _544
REMARK  223  A    between atoms: _546  and  _548
REMARK  224  A    between atoms: _548  and  _549
REMARK  225  A    between atoms: _548  and  _551
REMARK  226  A    between atoms: _551  and  _552
REMARK  227  A    between atoms: _552  and  _553
REMARK  228  A    between atoms: _553  and  _554
REMARK  229  A    between atoms: _563  and  _565
REMARK  230  A    between atoms: _565  and  _566
REMARK  231  A    between atoms: _565  and  _568
REMARK  232  A    between atoms: _568  and  _569
REMARK                            x       y       z     vdW  Elec       q    Type
REMARK                         _______ _______ _______ _____ _____    ______ ____
ROOT
ATOM      1  CA  VAL A   1      -1.324  12.098  12.171  0.00  0.00    +0.133 C 
ENDROOT
BRANCH   1   2
ATOM      2  CB  VAL A   1      -2.320  13.144  11.611  0.00  0.00    +0.023 C 
ATOM      3  CG2 VAL A   1      -3.660  13.042  12.330  0.00  0.00    +0.002 C 
ATOM      4  CG1 VAL A   1      -2.494  12.948  10.114  0.00  0.00    +0.002 C 
ENDBRANCH   1   2
BRANCH   1   5
ATOM      5  N   VAL A   1      -1.688  10.753  11.752  0.00  0.00    -0.239 NA
ATOM      6  H   VAL A   1      -2.576  10.337  12.097  0.00  0.00    +0.142 HD
ENDBRANCH   1   5
BRANCH   1   7
ATOM      7  C   VAL A   1      -1.321  12.162  13.706  0.00  0.00    +0.224 C 
ATOM      8  O   VAL A   1      -1.563  11.161  14.377  0.00  0.00    -0.287 OA
ENDBRANCH   1   7
TORSDOF 3
REMARK  Name = ../refined-set-2016/1m0b/1m0b_pocket.pdb
REMARK  232 active torsions:
REMARK  status: ('A' for Active; 'I' for Inactive)
REMARK    1  A    between atoms: _1  and  _3
REMARK    2  A    between atoms: _3  and  _4
REMARK    3  A    between atoms: _3  and  _6
REMARK    4  A    between atoms: _6  and  _7
REMARK    5  A    between atoms: _7  and  _8
REMARK    6  A    between atoms: _8  and  _9
REMARK    7  A    between atoms: _18  and  _20
REMARK    8  A    between atoms: _20  and  _21
REMARK    9  A    between atoms: _20  and  _23
REMARK   10  A    between atoms: _23  and  _24
REMARK   11  A    between atoms: _27  and  _29
REMARK   12  A    between atoms: _29  and  _30
REMARK   13  A    between atoms: _29  and  _32
REMARK   14  A    between atoms: _32  and  _33
REMARK   15  A    between atoms: _36  and  _38
REMARK   16  A    between atoms: _38  and  _39
REMARK   17  A    between atoms: _38  and  _41
REMARK   18  A    between atoms: _41  and  _42
REMARK   19  A    between atoms: _45  and  _47
REMARK   20  A    between atoms: _47  and  _48
REMARK   21  A    between atoms: _47  and  _50
REMARK   22  A    between atoms: _50  and  _51
REMARK   23  A    between atoms: _54  and  _56
REMARK   24  A    between atoms: _56  and  _57
REMARK   25  A    between atoms: _59  and  _61
REMARK   26  A    between atoms: _61  and  _62
REMARK   27  A    between atoms: _65  and  _67
REMARK   28  A    between atoms: _67  and  _68
REMARK   29  A    between atoms: _67  and  _70
REMARK   30  A    between atoms: _70  and  _71
REMARK   31  A    between atoms: _74  and  _76
REMARK   32  A    between atoms: _76  and  _77
REMARK   33  A    between atoms: _76  and  _79
REMARK   34  A    between atoms: _79  and  _80
REMARK   35  A    between atoms: _83  and  _85
REMARK   36  A    between atoms: _85  and  _86
REMARK   37  A    between atoms: _85  and  _88
REMARK   38  A    between atoms: _88  and  _89
REMARK   39  A    between atoms: _92  and  _94
REMARK   40  A    between atoms: _94  and  _95
REMARK   41  A    between atoms: _94  and  _97
REMARK   42  A    between atoms: _100  and  _102
REMARK   43  A    between atoms: _102  and  _103
REMARK   44  A    between atoms: _102  and  _105
REMARK   45  A    between atoms: _105  and  _106
REMARK   46  A    between atoms: _106  and  _107
REMARK   47  A    between atoms: _107  and  _108
REMARK   48  A    between atoms: _108  and  _109
REMARK   49  A    between atoms: _113  and  _115
REMARK   50  A    between atoms: _115  and  _116
REMARK   51  A    between atoms: _115  and  _118
REMARK   52  A    between atoms: _118  and  _119
REMARK   53  A    between atoms: _119  and  _120
REMARK   54  A    between atoms: _122  and  _124
REMARK   55  A    between atoms: _124  and  _125
REMARK   56  A    between atoms: _124  and  _127
REMARK   57  A    between atoms: _127  and  _128
REMARK   58  A    between atoms: _131  and  _133
REMARK   59  A    between atoms: _133  and  _134
REMARK   60  A    between atoms: _136  and  _138
REMARK   61  A    between atoms: _138  and  _139
REMARK   62  A    between atoms: _141  and  _143
REMARK   63  A    between atoms: _143  and  _144
REMARK   64  A    between atoms: _143  and  _146
REMARK   65  A    between atoms: _146  and  _147
REMARK   66  A    between atoms: _150  and  _152
REMARK   67  A    between atoms: _152  and  _153
REMARK   68  A    between atoms: _155  and  _157
REMARK   69  A    between atoms: _157  and  _158
REMARK   70  A    between atoms: _160  and  _162
REMARK   71  A    between atoms: _162  and  _163
REMARK   72  A    between atoms: _162  and  _165
REMARK   73  A    between atoms: _165  and  _166
REMARK   74  A    between atoms: _172  and  _174
REMARK   75  A    between atoms: _174  and  _175
REMARK   76  A    between atoms: _174  and  _177
REMARK   77  A    between atoms: _177  and  _178
REMARK   78  A    between atoms: _181  and  _183
REMARK   79  A    between atoms: _183  and  _184
REMARK   80  A    between atoms: _183  and  _186
REMARK   81  A    between atoms: _189  and  _191
REMARK   82  A    between atoms: _191  and  _192
REMARK   83  A    between atoms: _191  and  _194
REMARK   84  A    between atoms: _194  and  _195
REMARK   85  A    between atoms: _198  and  _200
REMARK   86  A    between atoms: _200  and  _201
REMARK   87  A    between atoms: _200  and  _203
REMARK   88  A    between atoms: _203  and  _204
REMARK   89  A    between atoms: _208  and  _209
REMARK   90  A    between atoms: _214  and  _216
REMARK   91  A    between atoms: _216  and  _217
REMARK   92  A    between atoms: _216  and  _219
REMARK   93  A    between atoms: _222  and  _224
REMARK   94  A    between atoms: _224  and  _225
REMARK   95  A    between atoms: _224  and  _227
REMARK   96  A    between atoms: _227  and  _228
REMARK   97  A    between atoms: _233  and  _235
REMARK   98  A    between atoms: _235  and  _236
REMARK   99  A    between atoms: _235  and  _238
REMARK  100  A    between atoms: _238  and  _239
REMARK  101  A    between atoms: _242  and  _244
REMARK  102  A    between atoms: _244  and  _245
REMARK  103  A    between atoms: _244  and  _247
REMARK  104  A    between atoms: _247  and  _248
REMARK  105  A    between atoms: _251  and  _253
REMARK  106  A    between atoms: _253  and  _254
REMARK  107  A    between atoms: _256  and  _258
REMARK  108  A    between atoms: _258  and  _259
REMARK  109  A    between atoms: _258  and  _261
REMARK  110  A    between atoms: _261  and  _262
REMARK  111  A    between atoms: _262  and  _263
REMARK  112  A    between atoms: _263  and  _264
REMARK  113  A    between atoms: _273  and  _275
REMARK  114  A    between atoms: _275  and  _276
REMARK  115  A    between atoms: _275  and  _278
REMARK  116  A    between atoms: _278  and  _279
REMARK  117  A    between atoms: _284  and  _286
REMARK  118  A    between atoms: _286  and  _287
REMARK  119  A    between atoms: _286  and  _289
REMARK  120  A    between atoms: _289  and  _290
REMARK  121  A    between atoms: _290  and  _291
REMARK  122  A    between atoms: _291  and  _292
REMARK  123  A    between atoms: _301  and  _303
REMARK  124  A    between atoms: _303  and  _304
REMARK  125  A    between atoms: _303  and  _306
REMARK  126  A    between atoms: _306  and  _307
REMARK  127  A    between atoms: _310  and  _312
REMARK  128  A    between atoms: _312  and  _313
REMARK  129  A    between atoms: _312  and  _315
REMARK  130  A    between atoms: _315  and  _316
REMARK  131  A    between atoms: _319  and  _321
REMARK  132  A    between atoms: _321  and  _322
REMARK  133  A    between atoms: _321  and  _324
REMARK  134  A    between atoms: _324  and  _325
REMARK  135  A    between atoms: _328  and  _330
REMARK  136  A    between atoms: _330  and  _331
REMARK  137  A    between atoms: _330  and  _333
REMARK  138  A    between atoms: _333  and  _334
REMARK  139  A    between atoms: _337  and  _339
REMARK  140  A    between atoms: _339  and  _340
REMARK  141  A    between atoms: _342  and  _344
REMARK  142  A    between atoms: _344  and  _345
REMARK  143  A    between atoms: _348  and  _350
REMARK  144  A    between atoms: _350  and  _351
REMARK  145  A    between atoms: _350  and  _353
REMARK  146  A    between atoms: _353  and  _354
REMARK  147  A    between atoms: _357  and  _359
REMARK  148  A    between atoms: _359  and  _360
REMARK  149  A    between atoms: _359  and  _362
REMARK  150  A    between atoms: _362  and  _363
REMARK  151  A    between atoms: _366  and  _368
REMARK  152  A    between atoms: _368  and  _369
REMARK  153  A    between atoms: _368  and  _371
REMARK  154  A    between atoms: _371  and  _372
REMARK  155  A    between atoms: _375  and  _377
REMARK  156  A    between atoms: _377  and  _378
REMARK  157  A    between atoms: _377  and  _380
REMARK  158  A    between atoms: _383  and  _385
REMARK  159  A    between atoms: _385  and  _386
REMARK  160  A    between atoms: _385  and  _388
REMARK  161  A    between atoms: _388  and  _389
REMARK  162  A    between atoms: _392  and  _394
REMARK  163  A    between atoms: _394  and  _395
REMARK  164  A    between atoms: _394  and  _397
REMARK  165  A    between atoms: _397  and  _398
REMARK  166  A    between atoms: _398  and  _399
REMARK  167  A    between atoms: _399  and  _400
REMARK  168  A    between atoms: _400  and  _401
REMARK  169  A    between atoms: _405  and  _407
REMARK  170  A    between atoms: _407  and  _408
REMARK  171  A    between atoms: _407  and  _410
REMARK  172  A    between atoms: _410  and  _411
REMARK  173  A    between atoms: _414  and  _416
REMARK  174  A    between atoms: _416  and  _417
REMARK  175  A    between atoms: _419  and  _421
REMARK  176  A    between atoms: _421  and  _422
REMARK  177  A    between atoms: _424  and  _426
REMARK  178  A    between atoms: _426  and  _427
REMARK  179  A    between atoms: _426  and  _429
REMARK  180  A    between atoms: _429  and  _430
REMARK  181  A    between atoms: _433  and  _435
REMARK  182  A    between atoms: _435  and  _436
REMARK  183  A    between atoms: _438  and  _440
REMARK  184  A    between atoms: _440  and  _441
REMARK  185  A    between atoms: _443  and  _445
REMARK  186  A    between atoms: _445  and  _446
REMARK  187  A    between atoms: _445  and  _448
REMARK  188  A    between atoms: _448  and  _449
REMARK  189  A    between atoms: _455  and  _457
REMARK  190  A    between atoms: _457  and  _458
REMARK  191  A    between atoms: _457  and  _460
REMARK  192  A    between atoms: _460  and  _461
REMARK  193  A    between atoms: _464  and  _466
REMARK  194  A    between atoms: _466  and  _467
REMARK  195  A    between atoms: _466  and  _469
REMARK  196  A    between atoms: _472  and  _474
REMARK  197  A    between atoms: _474  and  _475
REMARK  198  A    between atoms: _474  and  _477
REMARK  199  A    between atoms: _477  and  _478
REMARK  200  A    between atoms: _482  and  _483
REMARK  201  A    between atoms: _488  and  _490
REMARK  202  A    between atoms: _490  and  _491
REMARK  203  A    between atoms: _490  and  _493
REMARK  204  A    between atoms: _493  and  _494
REMARK  205  A    between atoms: _498  and  _499
REMARK  206  A    between atoms: _504  and  _506
REMARK  207  A    between atoms: _506  and  _507
REMARK  208  A    between atoms: _506  and  _509
REMARK  209  A    between atoms: _512  and  _514
REMARK  210  A    between atoms: _514  and  _515
REMARK  211  A    between atoms: _514  and  _517
REMARK  212  A    between atoms: _517  and  _518
REMARK  213  A    between atoms: _523  and  _525
REMARK  214  A    between atoms: _525  and  _526
REMARK  215  A    between atoms: _525  and  _528
REMARK  216  A    between atoms: _528  and  _529
REMARK  217  A    between atoms: _532  and  _534
REMARK  218  A    between atoms: _534  and  _535
REMARK  219  A    between atoms: _534  and  _537
REMARK  220  A    between atoms: _537  and  _538
REMARK  221  A    between atoms: _541  and  _543
REMARK  222  A    between atoms: _543  and  _544
REMARK  223  A    between atoms: _546  and  _548
REMARK  224  A    between atoms: _548  and  _549
REMARK  225  A    between atoms: _548  and  _551
REMARK  226  A    between atoms: _551  and  _552
REMARK  227  A    between atoms: _552  and  _553
REMARK  228  A    between atoms: _553  and  _554
REMARK  229  A    between atoms: _563  and  _565
REMARK  230  A    between atoms: _565  and  _566
REMARK  231  A    between atoms: _565  and  _568
REMARK  232  A    between atoms: _568  and  _569
REMARK                            x       y       z     vdW  Elec       q    Type
REMARK                         _______ _______ _______ _____ _____    ______ ____
ROOT
ATOM      1  CA  LEU A   1      -3.784  17.410  12.998  0.00  0.00    +0.133 C 
ENDROOT
BRANCH   1   2
ATOM      2  N   LEU A   1      -4.424  18.717  13.158  0.00  0.00    -0.239 NA
ATOM      3  H   LEU A   1      -4.799  19.210  12.323  0.00  0.00    +0.142 HD
ENDBRANCH   1   2
BRANCH   1   4
ATOM      4  C   LEU A   1      -2.446  17.549  12.281  0.00  0.00    +0.224 C 
ATOM      5  O   LEU A   1      -2.329  18.286  11.297  0.00  0.00    -0.287 OA
ENDBRANCH   1   4
BRANCH   1   6
ATOM      6  CB  LEU A   1      -4.694  16.462  12.220  0.00  0.00    +0.025 C 
BRANCH   6   7
ATOM      7  CG  LEU A   1      -6.107  16.313  12.775  0.00  0.00    +0.002 C 
ATOM      8  CD2 LEU A   1      -6.072  15.909  14.255  0.00  0.00    +0.000 C 
ATOM      9  CD1 LEU A   1      -6.841  15.269  11.905  0.00  0.00    +0.000 C 
ENDBRANCH   6   7
ENDBRANCH   1   6
TORSDOF 4
REMARK  Name = ../refined-set-2016/1m0b/1m0b_pocket.pdb
REMARK  232 active torsions:
REMARK  status: ('A' for Active; 'I' for Inactive)
REMARK    1  A    between atoms: _1  and  _3
REMARK    2  A    between atoms: _3  and  _4
REMARK    3  A    between atoms: _3  and  _6
REMARK    4  A    between atoms: _6  and  _7
REMARK    5  A    between atoms: _7  and  _8
REMARK    6  A    between atoms: _8  and  _9
REMARK    7  A    between atoms: _18  and  _20
REMARK    8  A    between atoms: _20  and  _21
REMARK    9  A    between atoms: _20  and  _23
REMARK   10  A    between atoms: _23  and  _24
REMARK   11  A    between atoms: _27  and  _29
REMARK   12  A    between atoms: _29  and  _30
REMARK   13  A    between atoms: _29  and  _32
REMARK   14  A    between atoms: _32  and  _33
REMARK   15  A    between atoms: _36  and  _38
REMARK   16  A    between atoms: _38  and  _39
REMARK   17  A    between atoms: _38  and  _41
REMARK   18  A    between atoms: _41  and  _42
REMARK   19  A    between atoms: _45  and  _47
REMARK   20  A    between atoms: _47  and  _48
REMARK   21  A    between atoms: _47  and  _50
REMARK   22  A    between atoms: _50  and  _51
REMARK   23  A    between atoms: _54  and  _56
REMARK   24  A    between atoms: _56  and  _57
REMARK   25  A    between atoms: _59  and  _61
REMARK   26  A    between atoms: _61  and  _62
REMARK   27  A    between atoms: _65  and  _67
REMARK   28  A    between atoms: _67  and  _68
REMARK   29  A    between atoms: _67  and  _70
REMARK   30  A    between atoms: _70  and  _71
REMARK   31  A    between atoms: _74  and  _76
REMARK   32  A    between atoms: _76  and  _77
REMARK   33  A    between atoms: _76  and  _79
REMARK   34  A    between atoms: _79  and  _80
REMARK   35  A    between atoms: _83  and  _85
REMARK   36  A    between atoms: _85  and  _86
REMARK   37  A    between atoms: _85  and  _88
REMARK   38  A    between atoms: _88  and  _89
REMARK   39  A    between atoms: _92  and  _94
REMARK   40  A    between atoms: _94  and  _95
REMARK   41  A    between atoms: _94  and  _97
REMARK   42  A    between atoms: _100  and  _102
REMARK   43  A    between atoms: _102  and  _103
REMARK   44  A    between atoms: _102  and  _105
REMARK   45  A    between atoms: _105  and  _106
REMARK   46  A    between atoms: _106  and  _107
REMARK   47  A    between atoms: _107  and  _108
REMARK   48  A    between atoms: _108  and  _109
REMARK   49  A    between atoms: _113  and  _115
REMARK   50  A    between atoms: _115  and  _116
REMARK   51  A    between atoms: _115  and  _118
REMARK   52  A    between atoms: _118  and  _119
REMARK   53  A    between atoms: _119  and  _120
REMARK   54  A    between atoms: _122  and  _124
REMARK   55  A    between atoms: _124  and  _125
REMARK   56  A    between atoms: _124  and  _127
REMARK   57  A    between atoms: _127  and  _128
REMARK   58  A    between atoms: _131  and  _133
REMARK   59  A    between atoms: _133  and  _134
REMARK   60  A    between atoms: _136  and  _138
REMARK   61  A    between atoms: _138  and  _139
REMARK   62  A    between atoms: _141  and  _143
REMARK   63  A    between atoms: _143  and  _144
REMARK   64  A    between atoms: _143  and  _146
REMARK   65  A    between atoms: _146  and  _147
REMARK   66  A    between atoms: _150  and  _152
REMARK   67  A    between atoms: _152  and  _153
REMARK   68  A    between atoms: _155  and  _157
REMARK   69  A    between atoms: _157  and  _158
REMARK   70  A    between atoms: _160  and  _162
REMARK   71  A    between atoms: _162  and  _163
REMARK   72  A    between atoms: _162  and  _165
REMARK   73  A    between atoms: _165  and  _166
REMARK   74  A    between atoms: _172  and  _174
REMARK   75  A    between atoms: _174  and  _175
REMARK   76  A    between atoms: _174  and  _177
REMARK   77  A    between atoms: _177  and  _178
REMARK   78  A    between atoms: _181  and  _183
REMARK   79  A    between atoms: _183  and  _184
REMARK   80  A    between atoms: _183  and  _186
REMARK   81  A    between atoms: _189  and  _191
REMARK   82  A    between atoms: _191  and  _192
REMARK   83  A    between atoms: _191  and  _194
REMARK   84  A    between atoms: _194  and  _195
REMARK   85  A    between atoms: _198  and  _200
REMARK   86  A    between atoms: _200  and  _201
REMARK   87  A    between atoms: _200  and  _203
REMARK   88  A    between atoms: _203  and  _204
REMARK   89  A    between atoms: _208  and  _209
REMARK   90  A    between atoms: _214  and  _216
REMARK   91  A    between atoms: _216  and  _217
REMARK   92  A    between atoms: _216  and  _219
REMARK   93  A    between atoms: _222  and  _224
REMARK   94  A    between atoms: _224  and  _225
REMARK   95  A    between atoms: _224  and  _227
REMARK   96  A    between atoms: _227  and  _228
REMARK   97  A    between atoms: _233  and  _235
REMARK   98  A    between atoms: _235  and  _236
REMARK   99  A    between atoms: _235  and  _238
REMARK  100  A    between atoms: _238  and  _239
REMARK  101  A    between atoms: _242  and  _244
REMARK  102  A    between atoms: _244  and  _245
REMARK  103  A    between atoms: _244  and  _247
REMARK  104  A    between atoms: _247  and  _248
REMARK  105  A    between atoms: _251  and  _253
REMARK  106  A    between atoms: _253  and  _254
REMARK  107  A    between atoms: _256  and  _258
REMARK  108  A    between atoms: _258  and  _259
REMARK  109  A    between atoms: _258  and  _261
REMARK  110  A    between atoms: _261  and  _262
REMARK  111  A    between atoms: _262  and  _263
REMARK  112  A    between atoms: _263  and  _264
REMARK  113  A    between atoms: _273  and  _275
REMARK  114  A    between atoms: _275  and  _276
REMARK  115  A    between atoms: _275  and  _278
REMARK  116  A    between atoms: _278  and  _279
REMARK  117  A    between atoms: _284  and  _286
REMARK  118  A    between atoms: _286  and  _287
REMARK  119  A    between atoms: _286  and  _289
REMARK  120  A    between atoms: _289  and  _290
REMARK  121  A    between atoms: _290  and  _291
REMARK  122  A    between atoms: _291  and  _292
REMARK  123  A    between atoms: _301  and  _303
REMARK  124  A    between atoms: _303  and  _304
REMARK  125  A    between atoms: _303  and  _306
REMARK  126  A    between atoms: _306  and  _307
REMARK  127  A    between atoms: _310  and  _312
REMARK  128  A    between atoms: _312  and  _313
REMARK  129  A    between atoms: _312  and  _315
REMARK  130  A    between atoms: _315  and  _316
REMARK  131  A    between atoms: _319  and  _321
REMARK  132  A    between atoms: _321  and  _322
REMARK  133  A    between atoms: _321  and  _324
REMARK  134  A    between atoms: _324  and  _325
REMARK  135  A    between atoms: _328  and  _330
REMARK  136  A    between atoms: _330  and  _331
REMARK  137  A    between atoms: _330  and  _333
REMARK  138  A    between atoms: _333  and  _334
REMARK  139  A    between atoms: _337  and  _339
REMARK  140  A    between atoms: _339  and  _340
REMARK  141  A    between atoms: _342  and  _344
REMARK  142  A    between atoms: _344  and  _345
REMARK  143  A    between atoms: _348  and  _350
REMARK  144  A    between atoms: _350  and  _351
REMARK  145  A    between atoms: _350  and  _353
REMARK  146  A    between atoms: _353  and  _354
REMARK  147  A    between atoms: _357  and  _359
REMARK  148  A    between atoms: _359  and  _360
REMARK  149  A    between atoms: _359  and  _362
REMARK  150  A    between atoms: _362  and  _363
REMARK  151  A    between atoms: _366  and  _368
REMARK  152  A    between atoms: _368  and  _369
REMARK  153  A    between atoms: _368  and  _371
REMARK  154  A    between atoms: _371  and  _372
REMARK  155  A    between atoms: _375  and  _377
REMARK  156  A    between atoms: _377  and  _378
REMARK  157  A    between atoms: _377  and  _380
REMARK  158  A    between atoms: _383  and  _385
REMARK  159  A    between atoms: _385  and  _386
REMARK  160  A    between atoms: _385  and  _388
REMARK  161  A    between atoms: _388  and  _389
REMARK  162  A    between atoms: _392  and  _394
REMARK  163  A    between atoms: _394  and  _395
REMARK  164  A    between atoms: _394  and  _397
REMARK  165  A    between atoms: _397  and  _398
REMARK  166  A    between atoms: _398  and  _399
REMARK  167  A    between atoms: _399  and  _400
REMARK  168  A    between atoms: _400  and  _401
REMARK  169  A    between atoms: _405  and  _407
REMARK  170  A    between atoms: _407  and  _408
REMARK  171  A    between atoms: _407  and  _410
REMARK  172  A    between atoms: _410  and  _411
REMARK  173  A    between atoms: _414  and  _416
REMARK  174  A    between atoms: _416  and  _417
REMARK  175  A    between atoms: _419  and  _421
REMARK  176  A    between atoms: _421  and  _422
REMARK  177  A    between atoms: _424  and  _426
REMARK  178  A    between atoms: _426  and  _427
REMARK  179  A    between atoms: _426  and  _429
REMARK  180  A    between atoms: _429  and  _430
REMARK  181  A    between atoms: _433  and  _435
REMARK  182  A    between atoms: _435  and  _436
REMARK  183  A    between atoms: _438  and  _440
REMARK  184  A    between atoms: _440  and  _441
REMARK  185  A    between atoms: _443  and  _445
REMARK  186  A    between atoms: _445  and  _446
REMARK  187  A    between atoms: _445  and  _448
REMARK  188  A    between atoms: _448  and  _449
REMARK  189  A    between atoms: _455  and  _457
REMARK  190  A    between atoms: _457  and  _458
REMARK  191  A    between atoms: _457  and  _460
REMARK  192  A    between atoms: _460  and  _461
REMARK  193  A    between atoms: _464  and  _466
REMARK  194  A    between atoms: _466  and  _467
REMARK  195  A    between atoms: _466  and  _469
REMARK  196  A    between atoms: _472  and  _474
REMARK  197  A    between atoms: _474  and  _475
REMARK  198  A    between atoms: _474  and  _477
REMARK  199  A    between atoms: _477  and  _478
REMARK  200  A    between atoms: _482  and  _483
REMARK  201  A    between atoms: _488  and  _490
REMARK  202  A    between atoms: _490  and  _491
REMARK  203  A    between atoms: _490  and  _493
REMARK  204  A    between atoms: _493  and  _494
REMARK  205  A    between atoms: _498  and  _499
REMARK  206  A    between atoms: _504  and  _506
REMARK  207  A    between atoms: _506  and  _507
REMARK  208  A    between atoms: _506  and  _509
REMARK  209  A    between atoms: _512  and  _514
REMARK  210  A    between atoms: _514  and  _515
REMARK  211  A    between atoms: _514  and  _517
REMARK  212  A    between atoms: _517  and  _518
REMARK  213  A    between atoms: _523  and  _525
REMARK  214  A    between atoms: _525  and  _526
REMARK  215  A    between atoms: _525  and  _528
REMARK  216  A    between atoms: _528  and  _529
REMARK  217  A    between atoms: _532  and  _534
REMARK  218  A    between atoms: _534  and  _535
REMARK  219  A    between atoms: _534  and  _537
REMARK  220  A    between atoms: _537  and  _538
REMARK  221  A    between atoms: _541  and  _543
REMARK  222  A    between atoms: _543  and  _544
REMARK  223  A    between atoms: _546  and  _548
REMARK  224  A    between atoms: _548  and  _549
REMARK  225  A    between atoms: _548  and  _551
REMARK  226  A    between atoms: _551  and  _552
REMARK  227  A    between atoms: _552  and  _553
REMARK  228  A    between atoms: _553  and  _554
REMARK  229  A    between atoms: _563  and  _565
REMARK  230  A    between atoms: _565  and  _566
REMARK  231  A    between atoms: _565  and  _568
REMARK  232  A    between atoms: _568  and  _569
REMARK                            x       y       z     vdW  Elec       q    Type
REMARK                         _______ _______ _______ _____ _____    ______ ____
ROOT
ATOM      1  C   ILE A   5      -6.192  22.556   6.124  0.00  0.00    +0.241 C 
ATOM      2  O   ILE A   5      -6.040  22.058   7.243  0.00  0.00    -0.273 OA
ATOM      3  N   ILE A   6      -6.958  23.618   5.901  0.00  0.00    -0.297 N 
ATOM      4  H   ILE A   6      -6.985  24.034   4.948  0.00  0.00    +0.150 HD
ENDROOT
BRANCH   1   5
ATOM      5  CA  ILE A   5      -5.467  21.988   4.917  0.00  0.00    +0.149 C 
BRANCH   5   7
ATOM      6  C   ASN A   4      -3.145  22.550   4.459  0.00  0.00    +0.241 C 
ATOM      7  N   ILE A   5      -4.037  21.892   5.182  0.00  0.00    -0.297 N 
ATOM      8  H   ILE A   5      -3.708  21.289   5.962  0.00  0.00    +0.150 HD
ATOM      9  O   ASN A   4      -3.473  23.309   3.559  0.00  0.00    -0.273 OA
BRANCH   6  10
ATOM     10  CA  ASN A   4      -1.664  22.332   4.810  0.00  0.00    +0.158 C 
BRANCH  10  12
ATOM     11  C   VAL A   3      -1.176  20.798   2.984  0.00  0.00    +0.241 C 
ATOM     12  N   ASN A   4      -0.997  21.987   3.557  0.00  0.00    -0.297 N 
ATOM     13  H   ASN A   4      -0.371  22.683   3.104  0.00  0.00    +0.150 HD
ATOM     14  O   VAL A   3      -1.845  19.913   3.494  0.00  0.00    -0.273 OA
BRANCH  11  15
ATOM     15  CA  VAL A   3      -0.465  20.557   1.651  0.00  0.00    +0.149 C 
BRANCH  15  17
ATOM     16  C   PRO A   2       1.016  18.702   1.050  0.00  0.00    +0.241 C 
ATOM     17  N   VAL A   3      -0.167  19.140   1.479  0.00  0.00    -0.297 N 
ATOM     18  H   VAL A   3      -0.907  18.444   1.700  0.00  0.00    +0.150 HD
ATOM     19  O   PRO A   2       1.948  19.462   0.741  0.00  0.00    -0.273 OA
BRANCH  16  26
ATOM     20  C   THR A   1       0.822  16.464   3.242  0.00  0.00    +0.244 C 
ATOM     21  O   THR A   1       1.808  17.117   3.591  0.00  0.00    -0.273 OA
ATOM     22  N   PRO A   2       0.419  16.421   1.958  0.00  0.00    -0.272 N 
ATOM     23  CD  PRO A   2      -0.694  15.651   1.363  0.00  0.00    +0.094 C 
ATOM     24  CG  PRO A   2      -0.163  15.339  -0.001  0.00  0.00    +0.024 C 
ATOM     25  CB  PRO A   2       0.572  16.630  -0.389  0.00  0.00    +0.031 C 
ATOM     26  CA  PRO A   2       1.160  17.169   0.929  0.00  0.00    +0.152 C 
BRANCH  20  27
ATOM     27  CA  THR A   1       0.013  15.659   4.265  0.00  0.00    +0.172 C 
BRANCH  27  28
ATOM     28  N   THR A   1       0.912  15.096   5.281  0.00  0.00    -0.236 NA
ATOM     29  H   THR A   1       1.017  15.588   6.192  0.00  0.00    +0.142 HD
ENDBRANCH  27  28
BRANCH  27  30
ATOM     30  CB  THR A   1      -1.080  16.569   4.896  0.00  0.00    +0.135 C 
ATOM     31  CG2 THR A   1      -0.466  17.629   5.766  0.00  0.00    +0.034 C 
BRANCH  30  32
ATOM     32  OG1 THR A   1      -1.823  17.205   3.855  0.00  0.00    -0.383 OA
ATOM     33  HG1 THR A   1      -1.212  17.754   3.303  0.00  0.00    +0.210 HD
ENDBRANCH  30  32
ENDBRANCH  27  30
ENDBRANCH  20  27
ENDBRANCH  16  26
ENDBRANCH  15  17
BRANCH  15  34
ATOM     34  CB  VAL A   3      -1.366  21.081   0.499  0.00  0.00    +0.027 C 
ATOM     35  CG2 VAL A   3      -1.659  22.562   0.700  0.00  0.00    +0.002 C 
ATOM     36  CG1 VAL A   3      -2.657  20.298   0.445  0.00  0.00    +0.002 C 
ENDBRANCH  15  34
ENDBRANCH  11  15
ENDBRANCH  10  12
BRANCH  10  37
ATOM     37  CB  ASN A   4      -1.098  23.628   5.415  0.00  0.00    +0.114 C 
BRANCH  37  38
ATOM     38  CG  ASN A   4       0.381  23.533   5.783  0.00  0.00    +0.222 C 
ATOM     39  OD1 ASN A   4       0.793  22.736   6.647  0.00  0.00    -0.275 OA
ATOM     40  ND2 ASN A   4       1.190  24.372   5.138  0.00  0.00    -0.329 N 
ATOM     41 HD21 ASN A   4       2.208  24.378   5.349  0.00  0.00    +0.145 HD
ATOM     42 HD22 ASN A   4       0.803  25.021   4.423  0.00  0.00    +0.145 HD
ENDBRANCH  37  38
ENDBRANCH  10  37
ENDBRANCH   6  10
ENDBRANCH   5   7
BRANCH   5  43
ATOM     43  CB  ILE A   5      -6.038  20.583   4.607  0.00  0.00    +0.027 C 
ATOM     44  CG2 ILE A   5      -7.526  20.620   4.498  0.00  0.00    +0.002 C 
BRANCH  43  45
ATOM     45  CG1 ILE A   5      -5.453  20.061   3.306  0.00  0.00    +0.002 C 
ATOM     46  CD1 ILE A   5      -5.349  18.554   3.281  0.00  0.00    +0.000 C 
ENDBRANCH  43  45
ENDBRANCH   5  43
ENDBRANCH   1   5
BRANCH   3  47
ATOM     47  CA  ILE A   6      -7.762  24.214   6.962  0.00  0.00    +0.149 C 
BRANCH  47  48
ATOM     48  C   ILE A   6      -9.168  23.649   6.742  0.00  0.00    +0.241 C 
ATOM     49  N   GLY A   7      -9.635  22.816   7.668  0.00  0.00    -0.295 N 
ATOM     50  H   GLY A   7      -9.055  22.605   8.505  0.00  0.00    +0.150 HD
ATOM     51  O   ILE A   6      -9.805  23.958   5.741  0.00  0.00    -0.273 OA
BRANCH  49  52
ATOM     52  CA  GLY A   7     -10.938  22.198   7.529  0.00  0.00    +0.176 C 
BRANCH  52  53
ATOM     53  C   GLY A   7     -12.088  23.012   8.091  0.00  0.00    +0.243 C 
ATOM     54  O   GLY A   7     -11.906  24.125   8.564  0.00  0.00    -0.273 OA
ATOM     55  N   ARG A   8     -13.278  22.431   8.060  0.00  0.00    -0.297 N 
ATOM     56  H   ARG A   8     -13.362  21.465   7.683  0.00  0.00    +0.150 HD
BRANCH  55  57
ATOM     57  CA  ARG A   8     -14.457  23.103   8.535  0.00  0.00    +0.149 C 
BRANCH  57  58
ATOM     58  C   ARG A   8     -14.417  23.402  10.007  0.00  0.00    +0.241 C 
ATOM     59  N   ASN A   9     -13.631  22.650  10.771  0.00  0.00    -0.298 N 
ATOM     60  H   ASN A   9     -13.055  21.894  10.349  0.00  0.00    +0.150 HD
ATOM     61  O   ARG A   8     -15.091  24.337  10.455  0.00  0.00    -0.273 OA
BRANCH  59  62
ATOM     62  CA  ASN A   9     -13.586  22.897  12.205  0.00  0.00    +0.146 C 
BRANCH  62  63
ATOM     63  C   ASN A   9     -13.089  24.286  12.500  0.00  0.00    +0.227 C 
ATOM     64  O   ASN A   9     -13.585  24.946  13.429  0.00  0.00    -0.286 OA
ENDBRANCH  62  63
BRANCH  62  65
ATOM     65  CB  ASN A   9     -12.737  21.852  12.940  0.00  0.00    +0.112 C 
BRANCH  65  66
ATOM     66  CG  ASN A   9     -11.269  21.915  12.601  0.00  0.00    +0.222 C 
ATOM     67  ND2 ASN A   9     -10.467  22.279  13.579  0.00  0.00    -0.329 N 
ATOM     68 HD21 ASN A   9     -10.860  22.524  14.510  0.00  0.00    +0.145 HD
ATOM     69 HD22 ASN A   9      -9.440  22.322  13.421  0.00  0.00    +0.145 HD
ATOM     70  OD1 ASN A   9     -10.856  21.618  11.490  0.00  0.00    -0.275 OA
ENDBRANCH  65  66
ENDBRANCH  62  65
ENDBRANCH  59  62
ENDBRANCH  57  58
BRANCH  57  71
ATOM     71  CB  ARG A   8     -15.718  22.285   8.184  0.00  0.00    +0.033 C 
BRANCH  71  72
ATOM     72  CG  ARG A   8     -16.038  22.284   6.675  0.00  0.00    +0.045 C 
BRANCH  72  73
ATOM     73  CD  ARG A   8     -17.321  21.530   6.326  0.00  0.00    +0.174 C 
BRANCH  73  74
ATOM     74  NE  ARG A   8     -17.358  20.140   6.792  0.00  0.00    -0.265 N 
ATOM     75  CZ  ARG A   8     -17.884  19.760   7.953  0.00  0.00    +0.342 C 
ATOM     76  NH2 ARG A   8     -18.424  20.665   8.775  0.00  0.00    -0.292 N 
ATOM     77 HH21 ARG A   8     -18.834  20.364   9.682  0.00  0.00    +0.255 HD
ATOM     78 HH22 ARG A   8     -18.434  21.670   8.508  0.00  0.00    +0.255 HD
ATOM     79  NH1 ARG A   8     -17.879  18.475   8.295  0.00  0.00    -0.292 N 
ATOM     80 HH11 ARG A   8     -18.290  18.177   9.203  0.00  0.00    +0.255 HD
ATOM     81 HH12 ARG A   8     -17.464  17.768   7.655  0.00  0.00    +0.255 HD
ATOM     82  HE  ARG A   8     -16.948  19.407   6.178  0.00  0.00    +0.259 HD
ENDBRANCH  73  74
ENDBRANCH  72  73
ENDBRANCH  71  72
ENDBRANCH  57  71
ENDBRANCH  55  57
ENDBRANCH  52  53
ENDBRANCH  49  52
ENDBRANCH  47  48
BRANCH  47  83
ATOM     83  CB  ILE A   6      -7.845  25.711   6.818  0.00  0.00    +0.027 C 
ATOM     84  CG2 ILE A   6      -8.646  26.279   7.998  0.00  0.00    +0.002 C 
BRANCH  83  85
ATOM     85  CG1 ILE A   6      -6.434  26.287   6.659  0.00  0.00    +0.002 C 
ATOM     86  CD1 ILE A   6      -5.488  25.983   7.818  0.00  0.00    +0.000 C 
ENDBRANCH  83  85
ENDBRANCH  47  83
ENDBRANCH   3  47
TORSDOF 32
REMARK  Name = ../refined-set-2016/1m0b/1m0b_pocket.pdb
REMARK  232 active torsions:
REMARK  status: ('A' for Active; 'I' for Inactive)
REMARK    1  A    between atoms: _1  and  _3
REMARK    2  A    between atoms: _3  and  _4
REMARK    3  A    between atoms: _3  and  _6
REMARK    4  A    between atoms: _6  and  _7
REMARK    5  A    between atoms: _7  and  _8
REMARK    6  A    between atoms: _8  and  _9
REMARK    7  A    between atoms: _18  and  _20
REMARK    8  A    between atoms: _20  and  _21
REMARK    9  A    between atoms: _20  and  _23
REMARK   10  A    between atoms: _23  and  _24
REMARK   11  A    between atoms: _27  and  _29
REMARK   12  A    between atoms: _29  and  _30
REMARK   13  A    between atoms: _29  and  _32
REMARK   14  A    between atoms: _32  and  _33
REMARK   15  A    between atoms: _36  and  _38
REMARK   16  A    between atoms: _38  and  _39
REMARK   17  A    between atoms: _38  and  _41
REMARK   18  A    between atoms: _41  and  _42
REMARK   19  A    between atoms: _45  and  _47
REMARK   20  A    between atoms: _47  and  _48
REMARK   21  A    between atoms: _47  and  _50
REMARK   22  A    between atoms: _50  and  _51
REMARK   23  A    between atoms: _54  and  _56
REMARK   24  A    between atoms: _56  and  _57
REMARK   25  A    between atoms: _59  and  _61
REMARK   26  A    between atoms: _61  and  _62
REMARK   27  A    between atoms: _65  and  _67
REMARK   28  A    between atoms: _67  and  _68
REMARK   29  A    between atoms: _67  and  _70
REMARK   30  A    between atoms: _70  and  _71
REMARK   31  A    between atoms: _74  and  _76
REMARK   32  A    between atoms: _76  and  _77
REMARK   33  A    between atoms: _76  and  _79
REMARK   34  A    between atoms: _79  and  _80
REMARK   35  A    between atoms: _83  and  _85
REMARK   36  A    between atoms: _85  and  _86
REMARK   37  A    between atoms: _85  and  _88
REMARK   38  A    between atoms: _88  and  _89
REMARK   39  A    between atoms: _92  and  _94
REMARK   40  A    between atoms: _94  and  _95
REMARK   41  A    between atoms: _94  and  _97
REMARK   42  A    between atoms: _100  and  _102
REMARK   43  A    between atoms: _102  and  _103
REMARK   44  A    between atoms: _102  and  _105
REMARK   45  A    between atoms: _105  and  _106
REMARK   46  A    between atoms: _106  and  _107
REMARK   47  A    between atoms: _107  and  _108
REMARK   48  A    between atoms: _108  and  _109
REMARK   49  A    between atoms: _113  and  _115
REMARK   50  A    between atoms: _115  and  _116
REMARK   51  A    between atoms: _115  and  _118
REMARK   52  A    between atoms: _118  and  _119
REMARK   53  A    between atoms: _119  and  _120
REMARK   54  A    between atoms: _122  and  _124
REMARK   55  A    between atoms: _124  and  _125
REMARK   56  A    between atoms: _124  and  _127
REMARK   57  A    between atoms: _127  and  _128
REMARK   58  A    between atoms: _131  and  _133
REMARK   59  A    between atoms: _133  and  _134
REMARK   60  A    between atoms: _136  and  _138
REMARK   61  A    between atoms: _138  and  _139
REMARK   62  A    between atoms: _141  and  _143
REMARK   63  A    between atoms: _143  and  _144
REMARK   64  A    between atoms: _143  and  _146
REMARK   65  A    between atoms: _146  and  _147
REMARK   66  A    between atoms: _150  and  _152
REMARK   67  A    between atoms: _152  and  _153
REMARK   68  A    between atoms: _155  and  _157
REMARK   69  A    between atoms: _157  and  _158
REMARK   70  A    between atoms: _160  and  _162
REMARK   71  A    between atoms: _162  and  _163
REMARK   72  A    between atoms: _162  and  _165
REMARK   73  A    between atoms: _165  and  _166
REMARK   74  A    between atoms: _172  and  _174
REMARK   75  A    between atoms: _174  and  _175
REMARK   76  A    between atoms: _174  and  _177
REMARK   77  A    between atoms: _177  and  _178
REMARK   78  A    between atoms: _181  and  _183
REMARK   79  A    between atoms: _183  and  _184
REMARK   80  A    between atoms: _183  and  _186
REMARK   81  A    between atoms: _189  and  _191
REMARK   82  A    between atoms: _191  and  _192
REMARK   83  A    between atoms: _191  and  _194
REMARK   84  A    between atoms: _194  and  _195
REMARK   85  A    between atoms: _198  and  _200
REMARK   86  A    between atoms: _200  and  _201
REMARK   87  A    between atoms: _200  and  _203
REMARK   88  A    between atoms: _203  and  _204
REMARK   89  A    between atoms: _208  and  _209
REMARK   90  A    between atoms: _214  and  _216
REMARK   91  A    between atoms: _216  and  _217
REMARK   92  A    between atoms: _216  and  _219
REMARK   93  A    between atoms: _222  and  _224
REMARK   94  A    between atoms: _224  and  _225
REMARK   95  A    between atoms: _224  and  _227
REMARK   96  A    between atoms: _227  and  _228
REMARK   97  A    between atoms: _233  and  _235
REMARK   98  A    between atoms: _235  and  _236
REMARK   99  A    between atoms: _235  and  _238
REMARK  100  A    between atoms: _238  and  _239
REMARK  101  A    between atoms: _242  and  _244
REMARK  102  A    between atoms: _244  and  _245
REMARK  103  A    between atoms: _244  and  _247
REMARK  104  A    between atoms: _247  and  _248
REMARK  105  A    between atoms: _251  and  _253
REMARK  106  A    between atoms: _253  and  _254
REMARK  107  A    between atoms: _256  and  _258
REMARK  108  A    between atoms: _258  and  _259
REMARK  109  A    between atoms: _258  and  _261
REMARK  110  A    between atoms: _261  and  _262
REMARK  111  A    between atoms: _262  and  _263
REMARK  112  A    between atoms: _263  and  _264
REMARK  113  A    between atoms: _273  and  _275
REMARK  114  A    between atoms: _275  and  _276
REMARK  115  A    between atoms: _275  and  _278
REMARK  116  A    between atoms: _278  and  _279
REMARK  117  A    between atoms: _284  and  _286
REMARK  118  A    between atoms: _286  and  _287
REMARK  119  A    between atoms: _286  and  _289
REMARK  120  A    between atoms: _289  and  _290
REMARK  121  A    between atoms: _290  and  _291
REMARK  122  A    between atoms: _291  and  _292
REMARK  123  A    between atoms: _301  and  _303
REMARK  124  A    between atoms: _303  and  _304
REMARK  125  A    between atoms: _303  and  _306
REMARK  126  A    between atoms: _306  and  _307
REMARK  127  A    between atoms: _310  and  _312
REMARK  128  A    between atoms: _312  and  _313
REMARK  129  A    between atoms: _312  and  _315
REMARK  130  A    between atoms: _315  and  _316
REMARK  131  A    between atoms: _319  and  _321
REMARK  132  A    between atoms: _321  and  _322
REMARK  133  A    between atoms: _321  and  _324
REMARK  134  A    between atoms: _324  and  _325
REMARK  135  A    between atoms: _328  and  _330
REMARK  136  A    between atoms: _330  and  _331
REMARK  137  A    between atoms: _330  and  _333
REMARK  138  A    between atoms: _333  and  _334
REMARK  139  A    between atoms: _337  and  _339
REMARK  140  A    between atoms: _339  and  _340
REMARK  141  A    between atoms: _342  and  _344
REMARK  142  A    between atoms: _344  and  _345
REMARK  143  A    between atoms: _348  and  _350
REMARK  144  A    between atoms: _350  and  _351
REMARK  145  A    between atoms: _350  and  _353
REMARK  146  A    between atoms: _353  and  _354
REMARK  147  A    between atoms: _357  and  _359
REMARK  148  A    between atoms: _359  and  _360
REMARK  149  A    between atoms: _359  and  _362
REMARK  150  A    between atoms: _362  and  _363
REMARK  151  A    between atoms: _366  and  _368
REMARK  152  A    between atoms: _368  and  _369
REMARK  153  A    between atoms: _368  and  _371
REMARK  154  A    between atoms: _371  and  _372
REMARK  155  A    between atoms: _375  and  _377
REMARK  156  A    between atoms: _377  and  _378
REMARK  157  A    between atoms: _377  and  _380
REMARK  158  A    between atoms: _383  and  _385
REMARK  159  A    between atoms: _385  and  _386
REMARK  160  A    between atoms: _385  and  _388
REMARK  161  A    between atoms: _388  and  _389
REMARK  162  A    between atoms: _392  and  _394
REMARK  163  A    between atoms: _394  and  _395
REMARK  164  A    between atoms: _394  and  _397
REMARK  165  A    between atoms: _397  and  _398
REMARK  166  A    between atoms: _398  and  _399
REMARK  167  A    between atoms: _399  and  _400
REMARK  168  A    between atoms: _400  and  _401
REMARK  169  A    between atoms: _405  and  _407
REMARK  170  A    between atoms: _407  and  _408
REMARK  171  A    between atoms: _407  and  _410
REMARK  172  A    between atoms: _410  and  _411
REMARK  173  A    between atoms: _414  and  _416
REMARK  174  A    between atoms: _416  and  _417
REMARK  175  A    between atoms: _419  and  _421
REMARK  176  A    between atoms: _421  and  _422
REMARK  177  A    between atoms: _424  and  _426
REMARK  178  A    between atoms: _426  and  _427
REMARK  179  A    between atoms: _426  and  _429
REMARK  180  A    between atoms: _429  and  _430
REMARK  181  A    between atoms: _433  and  _435
REMARK  182  A    between atoms: _435  and  _436
REMARK  183  A    between atoms: _438  and  _440
REMARK  184  A    between atoms: _440  and  _441
REMARK  185  A    between atoms: _443  and  _445
REMARK  186  A    between atoms: _445  and  _446
REMARK  187  A    between atoms: _445  and  _448
REMARK  188  A    between atoms: _448  and  _449
REMARK  189  A    between atoms: _455  and  _457
REMARK  190  A    between atoms: _457  and  _458
REMARK  191  A    between atoms: _457  and  _460
REMARK  192  A    between atoms: _460  and  _461
REMARK  193  A    between atoms: _464  and  _466
REMARK  194  A    between atoms: _466  and  _467
REMARK  195  A    between atoms: _466  and  _469
REMARK  196  A    between atoms: _472  and  _474
REMARK  197  A    between atoms: _474  and  _475
REMARK  198  A    between atoms: _474  and  _477
REMARK  199  A    between atoms: _477  and  _478
REMARK  200  A    between atoms: _482  and  _483
REMARK  201  A    between atoms: _488  and  _490
REMARK  202  A    between atoms: _490  and  _491
REMARK  203  A    between atoms: _490  and  _493
REMARK  204  A    between atoms: _493  and  _494
REMARK  205  A    between atoms: _498  and  _499
REMARK  206  A    between atoms: _504  and  _506
REMARK  207  A    between atoms: _506  and  _507
REMARK  208  A    between atoms: _506  and  _509
REMARK  209  A    between atoms: _512  and  _514
REMARK  210  A    between atoms: _514  and  _515
REMARK  211  A    between atoms: _514  and  _517
REMARK  212  A    between atoms: _517  and  _518
REMARK  213  A    between atoms: _523  and  _525
REMARK  214  A    between atoms: _525  and  _526
REMARK  215  A    between atoms: _525  and  _528
REMARK  216  A    between atoms: _528  and  _529
REMARK  217  A    between atoms: _532  and  _534
REMARK  218  A    between atoms: _534  and  _535
REMARK  219  A    between atoms: _534  and  _537
REMARK  220  A    between atoms: _537  and  _538
REMARK  221  A    between atoms: _541  and  _543
REMARK  222  A    between atoms: _543  and  _544
REMARK  223  A    between atoms: _546  and  _548
REMARK  224  A    between atoms: _548  and  _549
REMARK  225  A    between atoms: _548  and  _551
REMARK  226  A    between atoms: _551  and  _552
REMARK  227  A    between atoms: _552  and  _553
REMARK  228  A    between atoms: _553  and  _554
REMARK  229  A    between atoms: _563  and  _565
REMARK  230  A    between atoms: _565  and  _566
REMARK  231  A    between atoms: _565  and  _568
REMARK  232  A    between atoms: _568  and  _569
REMARK                            x       y       z     vdW  Elec       q    Type
REMARK                         _______ _______ _______ _____ _____    ______ ____
ROOT
ATOM      1  NE  ARG A   1     -18.302  14.741   5.919  0.00  0.00    -0.265 N 
ATOM      2  HE  ARG A   1     -17.983  15.240   6.774  0.00  0.00    +0.259 HD
ATOM      3  CZ  ARG A   1     -17.880  13.484   5.758  0.00  0.00    +0.342 C 
ATOM      4  NH2 ARG A   1     -17.102  12.939   6.691  0.00  0.00    -0.292 N 
ATOM      5 HH21 ARG A   1     -16.831  13.491   7.530  0.00  0.00    +0.255 HD
ATOM      6 HH22 ARG A   1     -16.765  11.961   6.581  0.00  0.00    +0.255 HD
ATOM      7  NH1 ARG A   1     -18.237  12.769   4.691  0.00  0.00    -0.292 N 
ATOM      8 HH11 ARG A   1     -17.898  11.792   4.583  0.00  0.00    +0.255 HD
ATOM      9 HH12 ARG A   1     -18.854  13.189   3.967  0.00  0.00    +0.255 HD
ENDROOT
BRANCH   1  10
ATOM     10  CD  ARG A   1     -19.173  15.483   5.003  0.00  0.00    +0.174 C 
BRANCH  10  11
ATOM     11  CG  ARG A   1     -19.508  16.849   5.580  0.00  0.00    +0.045 C 
BRANCH  11  12
ATOM     12  CB  ARG A   1     -20.487  17.621   4.731  0.00  0.00    +0.029 C 
BRANCH  12  13
ATOM     13  CA  ARG A   1     -20.639  19.098   5.121  0.00  0.00    +0.133 C 
BRANCH  13  14
ATOM     14  N   ARG A   1     -21.360  19.261   6.397  0.00  0.00    -0.239 NA
ATOM     15  H   ARG A   1     -21.646  18.422   6.940  0.00  0.00    +0.142 HD
ENDBRANCH  13  14
BRANCH  13  16
ATOM     16  C   ARG A   1     -21.451  19.830   4.043  0.00  0.00    +0.224 C 
ATOM     17  O   ARG A   1     -22.678  19.749   4.031  0.00  0.00    -0.287 OA
ENDBRANCH  13  16
ENDBRANCH  12  13
ENDBRANCH  11  12
ENDBRANCH  10  11
ENDBRANCH   1  10
TORSDOF 6
REMARK  Name = ../refined-set-2016/1m0b/1m0b_pocket.pdb
REMARK  232 active torsions:
REMARK  status: ('A' for Active; 'I' for Inactive)
REMARK    1  A    between atoms: _1  and  _3
REMARK    2  A    between atoms: _3  and  _4
REMARK    3  A    between atoms: _3  and  _6
REMARK    4  A    between atoms: _6  and  _7
REMARK    5  A    between atoms: _7  and  _8
REMARK    6  A    between atoms: _8  and  _9
REMARK    7  A    between atoms: _18  and  _20
REMARK    8  A    between atoms: _20  and  _21
REMARK    9  A    between atoms: _20  and  _23
REMARK   10  A    between atoms: _23  and  _24
REMARK   11  A    between atoms: _27  and  _29
REMARK   12  A    between atoms: _29  and  _30
REMARK   13  A    between atoms: _29  and  _32
REMARK   14  A    between atoms: _32  and  _33
REMARK   15  A    between atoms: _36  and  _38
REMARK   16  A    between atoms: _38  and  _39
REMARK   17  A    between atoms: _38  and  _41
REMARK   18  A    between atoms: _41  and  _42
REMARK   19  A    between atoms: _45  and  _47
REMARK   20  A    between atoms: _47  and  _48
REMARK   21  A    between atoms: _47  and  _50
REMARK   22  A    between atoms: _50  and  _51
REMARK   23  A    between atoms: _54  and  _56
REMARK   24  A    between atoms: _56  and  _57
REMARK   25  A    between atoms: _59  and  _61
REMARK   26  A    between atoms: _61  and  _62
REMARK   27  A    between atoms: _65  and  _67
REMARK   28  A    between atoms: _67  and  _68
REMARK   29  A    between atoms: _67  and  _70
REMARK   30  A    between atoms: _70  and  _71
REMARK   31  A    between atoms: _74  and  _76
REMARK   32  A    between atoms: _76  and  _77
REMARK   33  A    between atoms: _76  and  _79
REMARK   34  A    between atoms: _79  and  _80
REMARK   35  A    between atoms: _83  and  _85
REMARK   36  A    between atoms: _85  and  _86
REMARK   37  A    between atoms: _85  and  _88
REMARK   38  A    between atoms: _88  and  _89
REMARK   39  A    between atoms: _92  and  _94
REMARK   40  A    between atoms: _94  and  _95
REMARK   41  A    between atoms: _94  and  _97
REMARK   42  A    between atoms: _100  and  _102
REMARK   43  A    between atoms: _102  and  _103
REMARK   44  A    between atoms: _102  and  _105
REMARK   45  A    between atoms: _105  and  _106
REMARK   46  A    between atoms: _106  and  _107
REMARK   47  A    between atoms: _107  and  _108
REMARK   48  A    between atoms: _108  and  _109
REMARK   49  A    between atoms: _113  and  _115
REMARK   50  A    between atoms: _115  and  _116
REMARK   51  A    between atoms: _115  and  _118
REMARK   52  A    between atoms: _118  and  _119
REMARK   53  A    between atoms: _119  and  _120
REMARK   54  A    between atoms: _122  and  _124
REMARK   55  A    between atoms: _124  and  _125
REMARK   56  A    between atoms: _124  and  _127
REMARK   57  A    between atoms: _127  and  _128
REMARK   58  A    between atoms: _131  and  _133
REMARK   59  A    between atoms: _133  and  _134
REMARK   60  A    between atoms: _136  and  _138
REMARK   61  A    between atoms: _138  and  _139
REMARK   62  A    between atoms: _141  and  _143
REMARK   63  A    between atoms: _143  and  _144
REMARK   64  A    between atoms: _143  and  _146
REMARK   65  A    between atoms: _146  and  _147
REMARK   66  A    between atoms: _150  and  _152
REMARK   67  A    between atoms: _152  and  _153
REMARK   68  A    between atoms: _155  and  _157
REMARK   69  A    between atoms: _157  and  _158
REMARK   70  A    between atoms: _160  and  _162
REMARK   71  A    between atoms: _162  and  _163
REMARK   72  A    between atoms: _162  and  _165
REMARK   73  A    between atoms: _165  and  _166
REMARK   74  A    between atoms: _172  and  _174
REMARK   75  A    between atoms: _174  and  _175
REMARK   76  A    between atoms: _174  and  _177
REMARK   77  A    between atoms: _177  and  _178
REMARK   78  A    between atoms: _181  and  _183
REMARK   79  A    between atoms: _183  and  _184
REMARK   80  A    between atoms: _183  and  _186
REMARK   81  A    between atoms: _189  and  _191
REMARK   82  A    between atoms: _191  and  _192
REMARK   83  A    between atoms: _191  and  _194
REMARK   84  A    between atoms: _194  and  _195
REMARK   85  A    between atoms: _198  and  _200
REMARK   86  A    between atoms: _200  and  _201
REMARK   87  A    between atoms: _200  and  _203
REMARK   88  A    between atoms: _203  and  _204
REMARK   89  A    between atoms: _208  and  _209
REMARK   90  A    between atoms: _214  and  _216
REMARK   91  A    between atoms: _216  and  _217
REMARK   92  A    between atoms: _216  and  _219
REMARK   93  A    between atoms: _222  and  _224
REMARK   94  A    between atoms: _224  and  _225
REMARK   95  A    between atoms: _224  and  _227
REMARK   96  A    between atoms: _227  and  _228
REMARK   97  A    between atoms: _233  and  _235
REMARK   98  A    between atoms: _235  and  _236
REMARK   99  A    between atoms: _235  and  _238
REMARK  100  A    between atoms: _238  and  _239
REMARK  101  A    between atoms: _242  and  _244
REMARK  102  A    between atoms: _244  and  _245
REMARK  103  A    between atoms: _244  and  _247
REMARK  104  A    between atoms: _247  and  _248
REMARK  105  A    between atoms: _251  and  _253
REMARK  106  A    between atoms: _253  and  _254
REMARK  107  A    between atoms: _256  and  _258
REMARK  108  A    between atoms: _258  and  _259
REMARK  109  A    between atoms: _258  and  _261
REMARK  110  A    between atoms: _261  and  _262
REMARK  111  A    between atoms: _262  and  _263
REMARK  112  A    between atoms: _263  and  _264
REMARK  113  A    between atoms: _273  and  _275
REMARK  114  A    between atoms: _275  and  _276
REMARK  115  A    between atoms: _275  and  _278
REMARK  116  A    between atoms: _278  and  _279
REMARK  117  A    between atoms: _284  and  _286
REMARK  118  A    between atoms: _286  and  _287
REMARK  119  A    between atoms: _286  and  _289
REMARK  120  A    between atoms: _289  and  _290
REMARK  121  A    between atoms: _290  and  _291
REMARK  122  A    between atoms: _291  and  _292
REMARK  123  A    between atoms: _301  and  _303
REMARK  124  A    between atoms: _303  and  _304
REMARK  125  A    between atoms: _303  and  _306
REMARK  126  A    between atoms: _306  and  _307
REMARK  127  A    between atoms: _310  and  _312
REMARK  128  A    between atoms: _312  and  _313
REMARK  129  A    between atoms: _312  and  _315
REMARK  130  A    between atoms: _315  and  _316
REMARK  131  A    between atoms: _319  and  _321
REMARK  132  A    between atoms: _321  and  _322
REMARK  133  A    between atoms: _321  and  _324
REMARK  134  A    between atoms: _324  and  _325
REMARK  135  A    between atoms: _328  and  _330
REMARK  136  A    between atoms: _330  and  _331
REMARK  137  A    between atoms: _330  and  _333
REMARK  138  A    between atoms: _333  and  _334
REMARK  139  A    between atoms: _337  and  _339
REMARK  140  A    between atoms: _339  and  _340
REMARK  141  A    between atoms: _342  and  _344
REMARK  142  A    between atoms: _344  and  _345
REMARK  143  A    between atoms: _348  and  _350
REMARK  144  A    between atoms: _350  and  _351
REMARK  145  A    between atoms: _350  and  _353
REMARK  146  A    between atoms: _353  and  _354
REMARK  147  A    between atoms: _357  and  _359
REMARK  148  A    between atoms: _359  and  _360
REMARK  149  A    between atoms: _359  and  _362
REMARK  150  A    between atoms: _362  and  _363
REMARK  151  A    between atoms: _366  and  _368
REMARK  152  A    between atoms: _368  and  _369
REMARK  153  A    between atoms: _368  and  _371
REMARK  154  A    between atoms: _371  and  _372
REMARK  155  A    between atoms: _375  and  _377
REMARK  156  A    between atoms: _377  and  _378
REMARK  157  A    between atoms: _377  and  _380
REMARK  158  A    between atoms: _383  and  _385
REMARK  159  A    between atoms: _385  and  _386
REMARK  160  A    between atoms: _385  and  _388
REMARK  161  A    between atoms: _388  and  _389
REMARK  162  A    between atoms: _392  and  _394
REMARK  163  A    between atoms: _394  and  _395
REMARK  164  A    between atoms: _394  and  _397
REMARK  165  A    between atoms: _397  and  _398
REMARK  166  A    between atoms: _398  and  _399
REMARK  167  A    between atoms: _399  and  _400
REMARK  168  A    between atoms: _400  and  _401
REMARK  169  A    between atoms: _405  and  _407
REMARK  170  A    between atoms: _407  and  _408
REMARK  171  A    between atoms: _407  and  _410
REMARK  172  A    between atoms: _410  and  _411
REMARK  173  A    between atoms: _414  and  _416
REMARK  174  A    between atoms: _416  and  _417
REMARK  175  A    between atoms: _419  and  _421
REMARK  176  A    between atoms: _421  and  _422
REMARK  177  A    between atoms: _424  and  _426
REMARK  178  A    between atoms: _426  and  _427
REMARK  179  A    between atoms: _426  and  _429
REMARK  180  A    between atoms: _429  and  _430
REMARK  181  A    between atoms: _433  and  _435
REMARK  182  A    between atoms: _435  and  _436
REMARK  183  A    between atoms: _438  and  _440
REMARK  184  A    between atoms: _440  and  _441
REMARK  185  A    between atoms: _443  and  _445
REMARK  186  A    between atoms: _445  and  _446
REMARK  187  A    between atoms: _445  and  _448
REMARK  188  A    between atoms: _448  and  _449
REMARK  189  A    between atoms: _455  and  _457
REMARK  190  A    between atoms: _457  and  _458
REMARK  191  A    between atoms: _457  and  _460
REMARK  192  A    between atoms: _460  and  _461
REMARK  193  A    between atoms: _464  and  _466
REMARK  194  A    between atoms: _466  and  _467
REMARK  195  A    between atoms: _466  and  _469
REMARK  196  A    between atoms: _472  and  _474
REMARK  197  A    between atoms: _474  and  _475
REMARK  198  A    between atoms: _474  and  _477
REMARK  199  A    between atoms: _477  and  _478
REMARK  200  A    between atoms: _482  and  _483
REMARK  201  A    between atoms: _488  and  _490
REMARK  202  A    between atoms: _490  and  _491
REMARK  203  A    between atoms: _490  and  _493
REMARK  204  A    between atoms: _493  and  _494
REMARK  205  A    between atoms: _498  and  _499
REMARK  206  A    between atoms: _504  and  _506
REMARK  207  A    between atoms: _506  and  _507
REMARK  208  A    between atoms: _506  and  _509
REMARK  209  A    between atoms: _512  and  _514
REMARK  210  A    between atoms: _514  and  _515
REMARK  211  A    between atoms: _514  and  _517
REMARK  212  A    between atoms: _517  and  _518
REMARK  213  A    between atoms: _523  and  _525
REMARK  214  A    between atoms: _525  and  _526
REMARK  215  A    between atoms: _525  and  _528
REMARK  216  A    between atoms: _528  and  _529
REMARK  217  A    between atoms: _532  and  _534
REMARK  218  A    between atoms: _534  and  _535
REMARK  219  A    between atoms: _534  and  _537
REMARK  220  A    between atoms: _537  and  _538
REMARK  221  A    between atoms: _541  and  _543
REMARK  222  A    between atoms: _543  and  _544
REMARK  223  A    between atoms: _546  and  _548
REMARK  224  A    between atoms: _548  and  _549
REMARK  225  A    between atoms: _548  and  _551
REMARK  226  A    between atoms: _551  and  _552
REMARK  227  A    between atoms: _552  and  _553
REMARK  228  A    between atoms: _553  and  _554
REMARK  229  A    between atoms: _563  and  _565
REMARK  230  A    between atoms: _565  and  _566
REMARK  231  A    between atoms: _565  and  _568
REMARK  232  A    between atoms: _568  and  _569
REMARK                            x       y       z     vdW  Elec       q    Type
REMARK                         _______ _______ _______ _____ _____    ______ ____
ROOT
ATOM      1  C   ALA A   6      -9.943  20.614  -6.105  0.00  0.00    +0.241 C 
ATOM      2  O   ALA A   6     -10.778  21.466  -6.433  0.00  0.00    -0.273 OA
ATOM      3  N   ASP A   7      -8.857  20.329  -6.819  0.00  0.00    -0.297 N 
ATOM      4  H   ASP A   7      -8.181  19.629  -6.453  0.00  0.00    +0.150 HD
ENDROOT
BRANCH   1   5
ATOM      5  CA  ALA A   6     -10.086  19.846  -4.804  0.00  0.00    +0.149 C 
ATOM      6  CB  ALA A   6     -11.230  18.834  -4.914  0.00  0.00    +0.031 C 
BRANCH   5   9
ATOM      7  C   GLY A   5      -9.430  21.051  -2.778  0.00  0.00    +0.243 C 
ATOM      8  O   GLY A   5      -8.359  20.438  -2.707  0.00  0.00    -0.273 OA
ATOM      9  N   ALA A   6     -10.336  20.814  -3.732  0.00  0.00    -0.297 N 
ATOM     10  H   ALA A   6     -11.240  21.329  -3.713  0.00  0.00    +0.150 HD
BRANCH   7  11
ATOM     11  CA  GLY A   5      -9.764  22.107  -1.732  0.00  0.00    +0.176 C 
BRANCH  11  13
ATOM     12  C   THR A   4     -11.322  23.789  -2.515  0.00  0.00    +0.243 C 
ATOM     13  N   GLY A   5     -11.092  22.677  -1.820  0.00  0.00    -0.295 N 
ATOM     14  H   GLY A   5     -11.881  22.209  -1.331  0.00  0.00    +0.150 HD
ATOM     15  O   THR A   4     -10.438  24.378  -3.147  0.00  0.00    -0.273 OA
BRANCH  12  16
ATOM     16  CA  THR A   4     -12.778  24.278  -2.537  0.00  0.00    +0.176 C 
BRANCH  16  18
ATOM     17  C   ASP A   3     -13.769  22.069  -2.809  0.00  0.00    +0.241 C 
ATOM     18  N   THR A   4     -13.677  23.200  -2.113  0.00  0.00    -0.295 N 
ATOM     19  H   THR A   4     -14.252  23.321  -1.255  0.00  0.00    +0.150 HD
ATOM     20  O   ASP A   3     -13.108  21.874  -3.814  0.00  0.00    -0.273 OA
BRANCH  17  21
ATOM     21  CA  ASP A   3     -14.720  20.987  -2.292  0.00  0.00    +0.160 C 
BRANCH  21  24
ATOM     22  C   LEU A   2     -17.103  21.277  -2.093  0.00  0.00    +0.241 C 
ATOM     23  O   LEU A   2     -16.995  21.582  -0.893  0.00  0.00    -0.273 OA
ATOM     24  N   ASP A   3     -16.058  21.008  -2.861  0.00  0.00    -0.297 N 
ATOM     25  H   ASP A   3     -16.195  20.811  -3.873  0.00  0.00    +0.150 HD
BRANCH  22  26
ATOM     26  CA  LEU A   2     -18.474  21.194  -2.757  0.00  0.00    +0.149 C 
BRANCH  26  28
ATOM     27  C   LEU A   1     -18.833  18.824  -2.447  0.00  0.00    +0.238 C 
ATOM     28  N   LEU A   2     -19.134  20.063  -2.093  0.00  0.00    -0.297 N 
ATOM     29  H   LEU A   2     -19.837  20.235  -1.346  0.00  0.00    +0.150 HD
ATOM     30  O   LEU A   1     -18.079  18.593  -3.371  0.00  0.00    -0.274 OA
BRANCH  27  31
ATOM     31  CA  LEU A   1     -19.511  17.676  -1.696  0.00  0.00    +0.145 C 
BRANCH  31  32
ATOM     32  N   LEU A   1     -20.008  16.737  -2.670  0.00  0.00    -0.238 NA
ATOM     33  H   LEU A   1     -19.348  16.073  -3.123  0.00  0.00    +0.142 HD
ENDBRANCH  31  32
BRANCH  31  34
ATOM     34  CB  LEU A   1     -18.530  16.912  -0.788  0.00  0.00    +0.026 C 
BRANCH  34  35
ATOM     35  CG  LEU A   1     -17.803  17.491   0.427  0.00  0.00    +0.002 C 
ATOM     36  CD2 LEU A   1     -18.706  17.524   1.629  0.00  0.00    +0.000 C 
ATOM     37  CD1 LEU A   1     -16.608  16.618   0.723  0.00  0.00    +0.000 C 
ENDBRANCH  34  35
ENDBRANCH  31  34
ENDBRANCH  27  31
ENDBRANCH  26  28
BRANCH  26  38
ATOM     38  CB  LEU A   2     -19.247  22.485  -2.520  0.00  0.00    +0.029 C 
BRANCH  38  39
ATOM     39  CG  LEU A   2     -20.687  22.427  -3.031  0.00  0.00    +0.002 C 
ATOM     40  CD2 LEU A   2     -21.352  23.756  -2.794  0.00  0.00    +0.000 C 
ATOM     41  CD1 LEU A   2     -20.688  22.083  -4.522  0.00  0.00    +0.000 C 
ENDBRANCH  38  39
ENDBRANCH  26  38
ENDBRANCH  22  26
ENDBRANCH  21  24
BRANCH  21  42
ATOM     42  CB  ASP A   3     -14.134  19.595  -2.541  0.00  0.00    +0.143 C 
BRANCH  42  43
ATOM     43  CG  ASP A   3     -12.917  19.319  -1.719  0.00  0.00    +0.367 C 
ATOM     44  OD2 ASP A   3     -12.406  20.257  -1.089  0.00  0.00    -0.246 OA
ATOM     45  OD1 ASP A   3     -12.463  18.163  -1.710  0.00  0.00    -0.246 OA
ENDBRANCH  42  43
ENDBRANCH  21  42
ENDBRANCH  17  21
ENDBRANCH  16  18
BRANCH  16  46
ATOM     46  CB  THR A   4     -12.944  25.536  -1.637  0.00  0.00    +0.137 C 
ATOM     47  CG2 THR A   4     -14.368  26.129  -1.794  0.00  0.00    +0.034 C 
BRANCH  46  48
ATOM     48  OG1 THR A   4     -12.759  25.182  -0.256  0.00  0.00    -0.382 OA
ATOM     49  HG1 THR A   4     -11.850  24.809  -0.131  0.00  0.00    +0.210 HD
ENDBRANCH  46  48
ENDBRANCH  16  46
ENDBRANCH  12  16
ENDBRANCH  11  13
ENDBRANCH   7  11
ENDBRANCH   5   9
ENDBRANCH   1   5
BRANCH   3  50
ATOM     50  CA  ASP A   7      -8.589  20.969  -8.097  0.00  0.00    +0.160 C 
BRANCH  50  51
ATOM     51  C   ASP A   7      -9.586  20.413  -9.082  0.00  0.00    +0.241 C 
ATOM     52  N   ASP A   8      -9.808  19.105  -8.981  0.00  0.00    -0.297 N 
ATOM     53  H   ASP A   8      -9.317  18.582  -8.228  0.00  0.00    +0.150 HD
ATOM     54  O   ASP A   7     -10.123  21.141  -9.903  0.00  0.00    -0.273 OA
BRANCH  52  55
ATOM     55  CA  ASP A   8     -10.698  18.362  -9.863  0.00  0.00    +0.160 C 
BRANCH  55  56
ATOM     56  C   ASP A   8     -12.009  17.893  -9.220  0.00  0.00    +0.241 C 
ATOM     57  O   ASP A   8     -12.194  17.965  -8.003  0.00  0.00    -0.273 OA
ATOM     58  N   THR A   9     -12.913  17.411 -10.066  0.00  0.00    -0.295 N 
ATOM     59  H   THR A   9     -12.686  17.406 -11.081  0.00  0.00    +0.150 HD
BRANCH  58  60
ATOM     60  CA  THR A   9     -14.205  16.890  -9.644  0.00  0.00    +0.176 C 
BRANCH  60  61
ATOM     61  C   THR A   9     -14.075  15.394  -9.793  0.00  0.00    +0.243 C 
ATOM     62  N   VAL A  10     -14.275  14.657  -8.706  0.00  0.00    -0.297 N 
ATOM     63  H   VAL A  10     -14.525  15.132  -7.815  0.00  0.00    +0.150 HD
ATOM     64  O   THR A   9     -13.774  14.918 -10.879  0.00  0.00    -0.273 OA
BRANCH  62  65
ATOM     65  CA  VAL A  10     -14.154  13.186  -8.720  0.00  0.00    +0.149 C 
BRANCH  65  66
ATOM     66  C   VAL A  10     -15.448  12.535  -8.212  0.00  0.00    +0.241 C 
ATOM     67  O   VAL A  10     -15.864  12.752  -7.071  0.00  0.00    -0.273 OA
ATOM     68  N   LEU A  11     -16.077  11.731  -9.056  0.00  0.00    -0.298 N 
ATOM     69  H   LEU A  11     -15.676  11.555  -9.999  0.00  0.00    +0.150 HD
BRANCH  68  70
ATOM     70  CA  LEU A  11     -17.325  11.094  -8.671  0.00  0.00    +0.137 C 
BRANCH  70  71
ATOM     71  C   LEU A  11     -17.106   9.606  -8.549  0.00  0.00    +0.227 C 
ATOM     72  O   LEU A  11     -16.260   9.062  -9.246  0.00  0.00    -0.286 OA
ENDBRANCH  70  71
BRANCH  70  73
ATOM     73  CB  LEU A  11     -18.410  11.398  -9.723  0.00  0.00    +0.028 C 
BRANCH  73  74
ATOM     74  CG  LEU A  11     -18.651  12.892 -10.051  0.00  0.00    +0.002 C 
ATOM     75  CD2 LEU A  11     -19.201  13.608  -8.830  0.00  0.00    +0.000 C 
ATOM     76  CD1 LEU A  11     -19.612  13.040 -11.212  0.00  0.00    +0.000 C 
ENDBRANCH  73  74
ENDBRANCH  70  73
ENDBRANCH  68  70
ENDBRANCH  65  66
BRANCH  65  77
ATOM     77  CB  VAL A  10     -12.973  12.690  -7.812  0.00  0.00    +0.027 C 
ATOM     78  CG2 VAL A  10     -12.753  11.197  -8.008  0.00  0.00    +0.002 C 
ATOM     79  CG1 VAL A  10     -11.704  13.475  -8.116  0.00  0.00    +0.002 C 
ENDBRANCH  65  77
ENDBRANCH  62  65
ENDBRANCH  60  61
BRANCH  60  80
ATOM     80  CB  THR A   9     -15.316  17.410 -10.575  0.00  0.00    +0.137 C 
ATOM     81  CG2 THR A   9     -16.679  16.735 -10.291  0.00  0.00    +0.034 C 
BRANCH  80  82
ATOM     82  OG1 THR A   9     -15.412  18.826 -10.409  0.00  0.00    -0.382 OA
ATOM     83  HG1 THR A   9     -14.546  19.244 -10.645  0.00  0.00    +0.210 HD
ENDBRANCH  80  82
ENDBRANCH  60  80
ENDBRANCH  58  60
ENDBRANCH  55  56
BRANCH  55  84
ATOM     84  CB  ASP A   8      -9.963  17.140 -10.393  0.00  0.00    +0.143 C 
BRANCH  84  85
ATOM     85  CG  ASP A   8      -8.529  17.430 -10.725  0.00  0.00    +0.367 C 
ATOM     86  OD2 ASP A   8      -7.641  16.717 -10.204  0.00  0.00    -0.246 OA
ATOM     87  OD1 ASP A   8      -8.286  18.373 -11.504  0.00  0.00    -0.246 OA
ENDBRANCH  84  85
ENDBRANCH  55  84
ENDBRANCH  52  55
ENDBRANCH  50  51
BRANCH  50  88
ATOM     88  CB  ASP A   7      -7.186  20.619  -8.637  0.00  0.00    +0.143 C 
BRANCH  88  89
ATOM     89  CG  ASP A   7      -6.059  21.043  -7.719  0.00  0.00    +0.367 C 
ATOM     90  OD2 ASP A   7      -6.153  22.128  -7.122  0.00  0.00    -0.246 OA
ATOM     91  OD1 ASP A   7      -5.065  20.294  -7.618  0.00  0.00    -0.246 OA
ENDBRANCH  88  89
ENDBRANCH  50  88
ENDBRANCH   3  50
TORSDOF 39
REMARK  Name = ../refined-set-2016/1m0b/1m0b_pocket.pdb
REMARK  232 active torsions:
REMARK  status: ('A' for Active; 'I' for Inactive)
REMARK    1  A    between atoms: _1  and  _3
REMARK    2  A    between atoms: _3  and  _4
REMARK    3  A    between atoms: _3  and  _6
REMARK    4  A    between atoms: _6  and  _7
REMARK    5  A    between atoms: _7  and  _8
REMARK    6  A    between atoms: _8  and  _9
REMARK    7  A    between atoms: _18  and  _20
REMARK    8  A    between atoms: _20  and  _21
REMARK    9  A    between atoms: _20  and  _23
REMARK   10  A    between atoms: _23  and  _24
REMARK   11  A    between atoms: _27  and  _29
REMARK   12  A    between atoms: _29  and  _30
REMARK   13  A    between atoms: _29  and  _32
REMARK   14  A    between atoms: _32  and  _33
REMARK   15  A    between atoms: _36  and  _38
REMARK   16  A    between atoms: _38  and  _39
REMARK   17  A    between atoms: _38  and  _41
REMARK   18  A    between atoms: _41  and  _42
REMARK   19  A    between atoms: _45  and  _47
REMARK   20  A    between atoms: _47  and  _48
REMARK   21  A    between atoms: _47  and  _50
REMARK   22  A    between atoms: _50  and  _51
REMARK   23  A    between atoms: _54  and  _56
REMARK   24  A    between atoms: _56  and  _57
REMARK   25  A    between atoms: _59  and  _61
REMARK   26  A    between atoms: _61  and  _62
REMARK   27  A    between atoms: _65  and  _67
REMARK   28  A    between atoms: _67  and  _68
REMARK   29  A    between atoms: _67  and  _70
REMARK   30  A    between atoms: _70  and  _71
REMARK   31  A    between atoms: _74  and  _76
REMARK   32  A    between atoms: _76  and  _77
REMARK   33  A    between atoms: _76  and  _79
REMARK   34  A    between atoms: _79  and  _80
REMARK   35  A    between atoms: _83  and  _85
REMARK   36  A    between atoms: _85  and  _86
REMARK   37  A    between atoms: _85  and  _88
REMARK   38  A    between atoms: _88  and  _89
REMARK   39  A    between atoms: _92  and  _94
REMARK   40  A    between atoms: _94  and  _95
REMARK   41  A    between atoms: _94  and  _97
REMARK   42  A    between atoms: _100  and  _102
REMARK   43  A    between atoms: _102  and  _103
REMARK   44  A    between atoms: _102  and  _105
REMARK   45  A    between atoms: _105  and  _106
REMARK   46  A    between atoms: _106  and  _107
REMARK   47  A    between atoms: _107  and  _108
REMARK   48  A    between atoms: _108  and  _109
REMARK   49  A    between atoms: _113  and  _115
REMARK   50  A    between atoms: _115  and  _116
REMARK   51  A    between atoms: _115  and  _118
REMARK   52  A    between atoms: _118  and  _119
REMARK   53  A    between atoms: _119  and  _120
REMARK   54  A    between atoms: _122  and  _124
REMARK   55  A    between atoms: _124  and  _125
REMARK   56  A    between atoms: _124  and  _127
REMARK   57  A    between atoms: _127  and  _128
REMARK   58  A    between atoms: _131  and  _133
REMARK   59  A    between atoms: _133  and  _134
REMARK   60  A    between atoms: _136  and  _138
REMARK   61  A    between atoms: _138  and  _139
REMARK   62  A    between atoms: _141  and  _143
REMARK   63  A    between atoms: _143  and  _144
REMARK   64  A    between atoms: _143  and  _146
REMARK   65  A    between atoms: _146  and  _147
REMARK   66  A    between atoms: _150  and  _152
REMARK   67  A    between atoms: _152  and  _153
REMARK   68  A    between atoms: _155  and  _157
REMARK   69  A    between atoms: _157  and  _158
REMARK   70  A    between atoms: _160  and  _162
REMARK   71  A    between atoms: _162  and  _163
REMARK   72  A    between atoms: _162  and  _165
REMARK   73  A    between atoms: _165  and  _166
REMARK   74  A    between atoms: _172  and  _174
REMARK   75  A    between atoms: _174  and  _175
REMARK   76  A    between atoms: _174  and  _177
REMARK   77  A    between atoms: _177  and  _178
REMARK   78  A    between atoms: _181  and  _183
REMARK   79  A    between atoms: _183  and  _184
REMARK   80  A    between atoms: _183  and  _186
REMARK   81  A    between atoms: _189  and  _191
REMARK   82  A    between atoms: _191  and  _192
REMARK   83  A    between atoms: _191  and  _194
REMARK   84  A    between atoms: _194  and  _195
REMARK   85  A    between atoms: _198  and  _200
REMARK   86  A    between atoms: _200  and  _201
REMARK   87  A    between atoms: _200  and  _203
REMARK   88  A    between atoms: _203  and  _204
REMARK   89  A    between atoms: _208  and  _209
REMARK   90  A    between atoms: _214  and  _216
REMARK   91  A    between atoms: _216  and  _217
REMARK   92  A    between atoms: _216  and  _219
REMARK   93  A    between atoms: _222  and  _224
REMARK   94  A    between atoms: _224  and  _225
REMARK   95  A    between atoms: _224  and  _227
REMARK   96  A    between atoms: _227  and  _228
REMARK   97  A    between atoms: _233  and  _235
REMARK   98  A    between atoms: _235  and  _236
REMARK   99  A    between atoms: _235  and  _238
REMARK  100  A    between atoms: _238  and  _239
REMARK  101  A    between atoms: _242  and  _244
REMARK  102  A    between atoms: _244  and  _245
REMARK  103  A    between atoms: _244  and  _247
REMARK  104  A    between atoms: _247  and  _248
REMARK  105  A    between atoms: _251  and  _253
REMARK  106  A    between atoms: _253  and  _254
REMARK  107  A    between atoms: _256  and  _258
REMARK  108  A    between atoms: _258  and  _259
REMARK  109  A    between atoms: _258  and  _261
REMARK  110  A    between atoms: _261  and  _262
REMARK  111  A    between atoms: _262  and  _263
REMARK  112  A    between atoms: _263  and  _264
REMARK  113  A    between atoms: _273  and  _275
REMARK  114  A    between atoms: _275  and  _276
REMARK  115  A    between atoms: _275  and  _278
REMARK  116  A    between atoms: _278  and  _279
REMARK  117  A    between atoms: _284  and  _286
REMARK  118  A    between atoms: _286  and  _287
REMARK  119  A    between atoms: _286  and  _289
REMARK  120  A    between atoms: _289  and  _290
REMARK  121  A    between atoms: _290  and  _291
REMARK  122  A    between atoms: _291  and  _292
REMARK  123  A    between atoms: _301  and  _303
REMARK  124  A    between atoms: _303  and  _304
REMARK  125  A    between atoms: _303  and  _306
REMARK  126  A    between atoms: _306  and  _307
REMARK  127  A    between atoms: _310  and  _312
REMARK  128  A    between atoms: _312  and  _313
REMARK  129  A    between atoms: _312  and  _315
REMARK  130  A    between atoms: _315  and  _316
REMARK  131  A    between atoms: _319  and  _321
REMARK  132  A    between atoms: _321  and  _322
REMARK  133  A    between atoms: _321  and  _324
REMARK  134  A    between atoms: _324  and  _325
REMARK  135  A    between atoms: _328  and  _330
REMARK  136  A    between atoms: _330  and  _331
REMARK  137  A    between atoms: _330  and  _333
REMARK  138  A    between atoms: _333  and  _334
REMARK  139  A    between atoms: _337  and  _339
REMARK  140  A    between atoms: _339  and  _340
REMARK  141  A    between atoms: _342  and  _344
REMARK  142  A    between atoms: _344  and  _345
REMARK  143  A    between atoms: _348  and  _350
REMARK  144  A    between atoms: _350  and  _351
REMARK  145  A    between atoms: _350  and  _353
REMARK  146  A    between atoms: _353  and  _354
REMARK  147  A    between atoms: _357  and  _359
REMARK  148  A    between atoms: _359  and  _360
REMARK  149  A    between atoms: _359  and  _362
REMARK  150  A    between atoms: _362  and  _363
REMARK  151  A    between atoms: _366  and  _368
REMARK  152  A    between atoms: _368  and  _369
REMARK  153  A    between atoms: _368  and  _371
REMARK  154  A    between atoms: _371  and  _372
REMARK  155  A    between atoms: _375  and  _377
REMARK  156  A    between atoms: _377  and  _378
REMARK  157  A    between atoms: _377  and  _380
REMARK  158  A    between atoms: _383  and  _385
REMARK  159  A    between atoms: _385  and  _386
REMARK  160  A    between atoms: _385  and  _388
REMARK  161  A    between atoms: _388  and  _389
REMARK  162  A    between atoms: _392  and  _394
REMARK  163  A    between atoms: _394  and  _395
REMARK  164  A    between atoms: _394  and  _397
REMARK  165  A    between atoms: _397  and  _398
REMARK  166  A    between atoms: _398  and  _399
REMARK  167  A    between atoms: _399  and  _400
REMARK  168  A    between atoms: _400  and  _401
REMARK  169  A    between atoms: _405  and  _407
REMARK  170  A    between atoms: _407  and  _408
REMARK  171  A    between atoms: _407  and  _410
REMARK  172  A    between atoms: _410  and  _411
REMARK  173  A    between atoms: _414  and  _416
REMARK  174  A    between atoms: _416  and  _417
REMARK  175  A    between atoms: _419  and  _421
REMARK  176  A    between atoms: _421  and  _422
REMARK  177  A    between atoms: _424  and  _426
REMARK  178  A    between atoms: _426  and  _427
REMARK  179  A    between atoms: _426  and  _429
REMARK  180  A    between atoms: _429  and  _430
REMARK  181  A    between atoms: _433  and  _435
REMARK  182  A    between atoms: _435  and  _436
REMARK  183  A    between atoms: _438  and  _440
REMARK  184  A    between atoms: _440  and  _441
REMARK  185  A    between atoms: _443  and  _445
REMARK  186  A    between atoms: _445  and  _446
REMARK  187  A    between atoms: _445  and  _448
REMARK  188  A    between atoms: _448  and  _449
REMARK  189  A    between atoms: _455  and  _457
REMARK  190  A    between atoms: _457  and  _458
REMARK  191  A    between atoms: _457  and  _460
REMARK  192  A    between atoms: _460  and  _461
REMARK  193  A    between atoms: _464  and  _466
REMARK  194  A    between atoms: _466  and  _467
REMARK  195  A    between atoms: _466  and  _469
REMARK  196  A    between atoms: _472  and  _474
REMARK  197  A    between atoms: _474  and  _475
REMARK  198  A    between atoms: _474  and  _477
REMARK  199  A    between atoms: _477  and  _478
REMARK  200  A    between atoms: _482  and  _483
REMARK  201  A    between atoms: _488  and  _490
REMARK  202  A    between atoms: _490  and  _491
REMARK  203  A    between atoms: _490  and  _493
REMARK  204  A    between atoms: _493  and  _494
REMARK  205  A    between atoms: _498  and  _499
REMARK  206  A    between atoms: _504  and  _506
REMARK  207  A    between atoms: _506  and  _507
REMARK  208  A    between atoms: _506  and  _509
REMARK  209  A    between atoms: _512  and  _514
REMARK  210  A    between atoms: _514  and  _515
REMARK  211  A    between atoms: _514  and  _517
REMARK  212  A    between atoms: _517  and  _518
REMARK  213  A    between atoms: _523  and  _525
REMARK  214  A    between atoms: _525  and  _526
REMARK  215  A    between atoms: _525  and  _528
REMARK  216  A    between atoms: _528  and  _529
REMARK  217  A    between atoms: _532  and  _534
REMARK  218  A    between atoms: _534  and  _535
REMARK  219  A    between atoms: _534  and  _537
REMARK  220  A    between atoms: _537  and  _538
REMARK  221  A    between atoms: _541  and  _543
REMARK  222  A    between atoms: _543  and  _544
REMARK  223  A    between atoms: _546  and  _548
REMARK  224  A    between atoms: _548  and  _549
REMARK  225  A    between atoms: _548  and  _551
REMARK  226  A    between atoms: _551  and  _552
REMARK  227  A    between atoms: _552  and  _553
REMARK  228  A    between atoms: _553  and  _554
REMARK  229  A    between atoms: _563  and  _565
REMARK  230  A    between atoms: _565  and  _566
REMARK  231  A    between atoms: _565  and  _568
REMARK  232  A    between atoms: _568  and  _569
REMARK                            x       y       z     vdW  Elec       q    Type
REMARK                         _______ _______ _______ _____ _____    ______ ____
ROOT
ATOM      1  CG  LYS A   1      -5.371  11.307 -14.663  0.00  0.00    -0.000 C 
ENDROOT
BRANCH   1   2
ATOM      2  CB  LYS A   1      -6.133  10.128 -15.307  0.00  0.00    +0.025 C 
BRANCH   2   3
ATOM      3  CA  LYS A   1      -5.437   8.770 -15.096  0.00  0.00    +0.133 C 
BRANCH   3   4
ATOM      4  N   LYS A   1      -6.128   7.685 -15.783  0.00  0.00    -0.239 NA
ATOM      5  H   LYS A   1      -6.577   6.921 -15.238  0.00  0.00    +0.142 HD
ENDBRANCH   3   4
BRANCH   3   6
ATOM      6  C   LYS A   1      -5.296   8.538 -13.613  0.00  0.00    +0.224 C 
ATOM      7  O   LYS A   1      -6.204   8.031 -12.942  0.00  0.00    -0.287 OA
ENDBRANCH   3   6
ENDBRANCH   2   3
ENDBRANCH   1   2
BRANCH   1   8
ATOM      8  CD  LYS A   1      -5.978  12.683 -14.970  0.00  0.00    -0.024 C 
BRANCH   8   9
ATOM      9  CE  LYS A   1      -5.168  13.831 -14.341  0.00  0.00    -0.086 C 
BRANCH   9  10
ATOM     10  NZ  LYS A   1      -5.866  15.161 -14.434  0.00  0.00    +0.380 N 
ATOM     11  HZ1 LYS A   1      -6.778  15.108 -13.938  0.00  0.00    -0.089 HD
ATOM     12  HZ2 LYS A   1      -5.273  15.894 -13.994  0.00  0.00    -0.089 HD
ATOM     13  HZ3 LYS A   1      -6.027  15.397 -15.434  0.00  0.00    -0.089 HD
ENDBRANCH   9  10
ENDBRANCH   8   9
ENDBRANCH   1   8
TORSDOF 7
REMARK  Name = ../refined-set-2016/1m0b/1m0b_pocket.pdb
REMARK  232 active torsions:
REMARK  status: ('A' for Active; 'I' for Inactive)
REMARK    1  A    between atoms: _1  and  _3
REMARK    2  A    between atoms: _3  and  _4
REMARK    3  A    between atoms: _3  and  _6
REMARK    4  A    between atoms: _6  and  _7
REMARK    5  A    between atoms: _7  and  _8
REMARK    6  A    between atoms: _8  and  _9
REMARK    7  A    between atoms: _18  and  _20
REMARK    8  A    between atoms: _20  and  _21
REMARK    9  A    between atoms: _20  and  _23
REMARK   10  A    between atoms: _23  and  _24
REMARK   11  A    between atoms: _27  and  _29
REMARK   12  A    between atoms: _29  and  _30
REMARK   13  A    between atoms: _29  and  _32
REMARK   14  A    between atoms: _32  and  _33
REMARK   15  A    between atoms: _36  and  _38
REMARK   16  A    between atoms: _38  and  _39
REMARK   17  A    between atoms: _38  and  _41
REMARK   18  A    between atoms: _41  and  _42
REMARK   19  A    between atoms: _45  and  _47
REMARK   20  A    between atoms: _47  and  _48
REMARK   21  A    between atoms: _47  and  _50
REMARK   22  A    between atoms: _50  and  _51
REMARK   23  A    between atoms: _54  and  _56
REMARK   24  A    between atoms: _56  and  _57
REMARK   25  A    between atoms: _59  and  _61
REMARK   26  A    between atoms: _61  and  _62
REMARK   27  A    between atoms: _65  and  _67
REMARK   28  A    between atoms: _67  and  _68
REMARK   29  A    between atoms: _67  and  _70
REMARK   30  A    between atoms: _70  and  _71
REMARK   31  A    between atoms: _74  and  _76
REMARK   32  A    between atoms: _76  and  _77
REMARK   33  A    between atoms: _76  and  _79
REMARK   34  A    between atoms: _79  and  _80
REMARK   35  A    between atoms: _83  and  _85
REMARK   36  A    between atoms: _85  and  _86
REMARK   37  A    between atoms: _85  and  _88
REMARK   38  A    between atoms: _88  and  _89
REMARK   39  A    between atoms: _92  and  _94
REMARK   40  A    between atoms: _94  and  _95
REMARK   41  A    between atoms: _94  and  _97
REMARK   42  A    between atoms: _100  and  _102
REMARK   43  A    between atoms: _102  and  _103
REMARK   44  A    between atoms: _102  and  _105
REMARK   45  A    between atoms: _105  and  _106
REMARK   46  A    between atoms: _106  and  _107
REMARK   47  A    between atoms: _107  and  _108
REMARK   48  A    between atoms: _108  and  _109
REMARK   49  A    between atoms: _113  and  _115
REMARK   50  A    between atoms: _115  and  _116
REMARK   51  A    between atoms: _115  and  _118
REMARK   52  A    between atoms: _118  and  _119
REMARK   53  A    between atoms: _119  and  _120
REMARK   54  A    between atoms: _122  and  _124
REMARK   55  A    between atoms: _124  and  _125
REMARK   56  A    between atoms: _124  and  _127
REMARK   57  A    between atoms: _127  and  _128
REMARK   58  A    between atoms: _131  and  _133
REMARK   59  A    between atoms: _133  and  _134
REMARK   60  A    between atoms: _136  and  _138
REMARK   61  A    between atoms: _138  and  _139
REMARK   62  A    between atoms: _141  and  _143
REMARK   63  A    between atoms: _143  and  _144
REMARK   64  A    between atoms: _143  and  _146
REMARK   65  A    between atoms: _146  and  _147
REMARK   66  A    between atoms: _150  and  _152
REMARK   67  A    between atoms: _152  and  _153
REMARK   68  A    between atoms: _155  and  _157
REMARK   69  A    between atoms: _157  and  _158
REMARK   70  A    between atoms: _160  and  _162
REMARK   71  A    between atoms: _162  and  _163
REMARK   72  A    between atoms: _162  and  _165
REMARK   73  A    between atoms: _165  and  _166
REMARK   74  A    between atoms: _172  and  _174
REMARK   75  A    between atoms: _174  and  _175
REMARK   76  A    between atoms: _174  and  _177
REMARK   77  A    between atoms: _177  and  _178
REMARK   78  A    between atoms: _181  and  _183
REMARK   79  A    between atoms: _183  and  _184
REMARK   80  A    between atoms: _183  and  _186
REMARK   81  A    between atoms: _189  and  _191
REMARK   82  A    between atoms: _191  and  _192
REMARK   83  A    between atoms: _191  and  _194
REMARK   84  A    between atoms: _194  and  _195
REMARK   85  A    between atoms: _198  and  _200
REMARK   86  A    between atoms: _200  and  _201
REMARK   87  A    between atoms: _200  and  _203
REMARK   88  A    between atoms: _203  and  _204
REMARK   89  A    between atoms: _208  and  _209
REMARK   90  A    between atoms: _214  and  _216
REMARK   91  A    between atoms: _216  and  _217
REMARK   92  A    between atoms: _216  and  _219
REMARK   93  A    between atoms: _222  and  _224
REMARK   94  A    between atoms: _224  and  _225
REMARK   95  A    between atoms: _224  and  _227
REMARK   96  A    between atoms: _227  and  _228
REMARK   97  A    between atoms: _233  and  _235
REMARK   98  A    between atoms: _235  and  _236
REMARK   99  A    between atoms: _235  and  _238
REMARK  100  A    between atoms: _238  and  _239
REMARK  101  A    between atoms: _242  and  _244
REMARK  102  A    between atoms: _244  and  _245
REMARK  103  A    between atoms: _244  and  _247
REMARK  104  A    between atoms: _247  and  _248
REMARK  105  A    between atoms: _251  and  _253
REMARK  106  A    between atoms: _253  and  _254
REMARK  107  A    between atoms: _256  and  _258
REMARK  108  A    between atoms: _258  and  _259
REMARK  109  A    between atoms: _258  and  _261
REMARK  110  A    between atoms: _261  and  _262
REMARK  111  A    between atoms: _262  and  _263
REMARK  112  A    between atoms: _263  and  _264
REMARK  113  A    between atoms: _273  and  _275
REMARK  114  A    between atoms: _275  and  _276
REMARK  115  A    between atoms: _275  and  _278
REMARK  116  A    between atoms: _278  and  _279
REMARK  117  A    between atoms: _284  and  _286
REMARK  118  A    between atoms: _286  and  _287
REMARK  119  A    between atoms: _286  and  _289
REMARK  120  A    between atoms: _289  and  _290
REMARK  121  A    between atoms: _290  and  _291
REMARK  122  A    between atoms: _291  and  _292
REMARK  123  A    between atoms: _301  and  _303
REMARK  124  A    between atoms: _303  and  _304
REMARK  125  A    between atoms: _303  and  _306
REMARK  126  A    between atoms: _306  and  _307
REMARK  127  A    between atoms: _310  and  _312
REMARK  128  A    between atoms: _312  and  _313
REMARK  129  A    between atoms: _312  and  _315
REMARK  130  A    between atoms: _315  and  _316
REMARK  131  A    between atoms: _319  and  _321
REMARK  132  A    between atoms: _321  and  _322
REMARK  133  A    between atoms: _321  and  _324
REMARK  134  A    between atoms: _324  and  _325
REMARK  135  A    between atoms: _328  and  _330
REMARK  136  A    between atoms: _330  and  _331
REMARK  137  A    between atoms: _330  and  _333
REMARK  138  A    between atoms: _333  and  _334
REMARK  139  A    between atoms: _337  and  _339
REMARK  140  A    between atoms: _339  and  _340
REMARK  141  A    between atoms: _342  and  _344
REMARK  142  A    between atoms: _344  and  _345
REMARK  143  A    between atoms: _348  and  _350
REMARK  144  A    between atoms: _350  and  _351
REMARK  145  A    between atoms: _350  and  _353
REMARK  146  A    between atoms: _353  and  _354
REMARK  147  A    between atoms: _357  and  _359
REMARK  148  A    between atoms: _359  and  _360
REMARK  149  A    between atoms: _359  and  _362
REMARK  150  A    between atoms: _362  and  _363
REMARK  151  A    between atoms: _366  and  _368
REMARK  152  A    between atoms: _368  and  _369
REMARK  153  A    between atoms: _368  and  _371
REMARK  154  A    between atoms: _371  and  _372
REMARK  155  A    between atoms: _375  and  _377
REMARK  156  A    between atoms: _377  and  _378
REMARK  157  A    between atoms: _377  and  _380
REMARK  158  A    between atoms: _383  and  _385
REMARK  159  A    between atoms: _385  and  _386
REMARK  160  A    between atoms: _385  and  _388
REMARK  161  A    between atoms: _388  and  _389
REMARK  162  A    between atoms: _392  and  _394
REMARK  163  A    between atoms: _394  and  _395
REMARK  164  A    between atoms: _394  and  _397
REMARK  165  A    between atoms: _397  and  _398
REMARK  166  A    between atoms: _398  and  _399
REMARK  167  A    between atoms: _399  and  _400
REMARK  168  A    between atoms: _400  and  _401
REMARK  169  A    between atoms: _405  and  _407
REMARK  170  A    between atoms: _407  and  _408
REMARK  171  A    between atoms: _407  and  _410
REMARK  172  A    between atoms: _410  and  _411
REMARK  173  A    between atoms: _414  and  _416
REMARK  174  A    between atoms: _416  and  _417
REMARK  175  A    between atoms: _419  and  _421
REMARK  176  A    between atoms: _421  and  _422
REMARK  177  A    between atoms: _424  and  _426
REMARK  178  A    between atoms: _426  and  _427
REMARK  179  A    between atoms: _426  and  _429
REMARK  180  A    between atoms: _429  and  _430
REMARK  181  A    between atoms: _433  and  _435
REMARK  182  A    between atoms: _435  and  _436
REMARK  183  A    between atoms: _438  and  _440
REMARK  184  A    between atoms: _440  and  _441
REMARK  185  A    between atoms: _443  and  _445
REMARK  186  A    between atoms: _445  and  _446
REMARK  187  A    between atoms: _445  and  _448
REMARK  188  A    between atoms: _448  and  _449
REMARK  189  A    between atoms: _455  and  _457
REMARK  190  A    between atoms: _457  and  _458
REMARK  191  A    between atoms: _457  and  _460
REMARK  192  A    between atoms: _460  and  _461
REMARK  193  A    between atoms: _464  and  _466
REMARK  194  A    between atoms: _466  and  _467
REMARK  195  A    between atoms: _466  and  _469
REMARK  196  A    between atoms: _472  and  _474
REMARK  197  A    between atoms: _474  and  _475
REMARK  198  A    between atoms: _474  and  _477
REMARK  199  A    between atoms: _477  and  _478
REMARK  200  A    between atoms: _482  and  _483
REMARK  201  A    between atoms: _488  and  _490
REMARK  202  A    between atoms: _490  and  _491
REMARK  203  A    between atoms: _490  and  _493
REMARK  204  A    between atoms: _493  and  _494
REMARK  205  A    between atoms: _498  and  _499
REMARK  206  A    between atoms: _504  and  _506
REMARK  207  A    between atoms: _506  and  _507
REMARK  208  A    between atoms: _506  and  _509
REMARK  209  A    between atoms: _512  and  _514
REMARK  210  A    between atoms: _514  and  _515
REMARK  211  A    between atoms: _514  and  _517
REMARK  212  A    between atoms: _517  and  _518
REMARK  213  A    between atoms: _523  and  _525
REMARK  214  A    between atoms: _525  and  _526
REMARK  215  A    between atoms: _525  and  _528
REMARK  216  A    between atoms: _528  and  _529
REMARK  217  A    between atoms: _532  and  _534
REMARK  218  A    between atoms: _534  and  _535
REMARK  219  A    between atoms: _534  and  _537
REMARK  220  A    between atoms: _537  and  _538
REMARK  221  A    between atoms: _541  and  _543
REMARK  222  A    between atoms: _543  and  _544
REMARK  223  A    between atoms: _546  and  _548
REMARK  224  A    between atoms: _548  and  _549
REMARK  225  A    between atoms: _548  and  _551
REMARK  226  A    between atoms: _551  and  _552
REMARK  227  A    between atoms: _552  and  _553
REMARK  228  A    between atoms: _553  and  _554
REMARK  229  A    between atoms: _563  and  _565
REMARK  230  A    between atoms: _565  and  _566
REMARK  231  A    between atoms: _565  and  _568
REMARK  232  A    between atoms: _568  and  _569
REMARK                            x       y       z     vdW  Elec       q    Type
REMARK                         _______ _______ _______ _____ _____    ______ ____
ROOT
ATOM      1  C   ILE A   4      -4.696  11.271   1.285  0.00  0.00    +0.241 C 
ATOM      2  N   GLY A   5      -3.674  10.533   1.717  0.00  0.00    -0.295 N 
ATOM      3  H   GLY A   5      -2.792  10.999   2.011  0.00  0.00    +0.150 HD
ATOM      4  O   ILE A   4      -5.757  10.767   0.905  0.00  0.00    -0.273 OA
ENDROOT
BRANCH   2   5
ATOM      5  CA  GLY A   5      -3.776   9.079   1.783  0.00  0.00    +0.176 C 
BRANCH   5   6
ATOM      6  C   GLY A   5      -3.065   8.386   0.621  0.00  0.00    +0.243 C 
ATOM      7  O   GLY A   5      -2.670   7.223   0.680  0.00  0.00    -0.273 OA
ATOM      8  N   GLY A   6      -2.863   9.101  -0.473  0.00  0.00    -0.295 N 
ATOM      9  H   GLY A   6      -3.181  10.090  -0.525  0.00  0.00    +0.150 HD
BRANCH   8  10
ATOM     10  CA  GLY A   6      -2.194   8.486  -1.594  0.00  0.00    +0.176 C 
BRANCH  10  11
ATOM     11  C   GLY A   6      -2.847   8.814  -2.913  0.00  0.00    +0.243 C 
ATOM     12  O   GLY A   6      -3.532   9.826  -3.065  0.00  0.00    -0.273 OA
ATOM     13  N   PHE A   7      -2.680   7.931  -3.878  0.00  0.00    -0.297 N 
ATOM     14  H   PHE A   7      -2.166   7.043  -3.709  0.00  0.00    +0.150 HD
BRANCH  13  15
ATOM     15  CA  PHE A   7      -3.238   8.239  -5.190  0.00  0.00    +0.153 C 
BRANCH  15  16
ATOM     16  C   PHE A   7      -4.290   7.213  -5.597  0.00  0.00    +0.241 C 
ATOM     17  O   PHE A   7      -4.315   6.138  -4.972  0.00  0.00    -0.273 OA
ATOM     18  N   ILE A   8      -5.180   7.507  -6.552  0.00  0.00    -0.298 N 
ATOM     19  H   ILE A   8      -5.167   8.451  -6.988  0.00  0.00    +0.150 HD
BRANCH  18  20
ATOM     20  CA  ILE A   8      -6.182   6.516  -7.000  0.00  0.00    +0.137 C 
BRANCH  20  21
ATOM     21  C   ILE A   8      -6.278   6.622  -8.501  0.00  0.00    +0.227 C 
ATOM     22  O   ILE A   8      -6.038   7.682  -9.067  0.00  0.00    -0.286 OA
ENDBRANCH  20  21
BRANCH  20  23
ATOM     23  CB  ILE A   8      -7.629   6.740  -6.436  0.00  0.00    +0.026 C 
ATOM     24  CG2 ILE A   8      -7.630   6.648  -4.919  0.00  0.00    +0.002 C 
BRANCH  23  25
ATOM     25  CG1 ILE A   8      -8.197   8.068  -6.944  0.00  0.00    +0.002 C 
ATOM     26  CD1 ILE A   8      -9.712   8.160  -6.864  0.00  0.00    +0.000 C 
ENDBRANCH  23  25
ENDBRANCH  20  23
ENDBRANCH  18  20
ENDBRANCH  15  16
BRANCH  15  27
ATOM     27  CB  PHE A   7      -2.115   8.198  -6.230  0.00  0.00    +0.055 C 
BRANCH  27  28
ATOM     28  CG  PHE A   7      -1.860   6.826  -6.760  0.00  0.00    -0.020 A 
ATOM     29  CD2 PHE A   7      -1.478   5.800  -5.904  0.00  0.00    -0.004 A 
ATOM     30  CE2 PHE A   7      -1.388   4.491  -6.356  0.00  0.00    -0.000 A 
ATOM     31  CZ  PHE A   7      -1.671   4.196  -7.679  0.00  0.00    -0.000 A 
ATOM     32  CE1 PHE A   7      -2.040   5.209  -8.548  0.00  0.00    -0.000 A 
ATOM     33  CD1 PHE A   7      -2.132   6.520  -8.086  0.00  0.00    -0.004 A 
ENDBRANCH  27  28
ENDBRANCH  15  27
ENDBRANCH  13  15
ENDBRANCH  10  11
ENDBRANCH   8  10
ENDBRANCH   5   6
ENDBRANCH   2   5
BRANCH   1  34
ATOM     34  CA  ILE A   4      -4.484  12.802   1.224  0.00  0.00    +0.149 C 
BRANCH  34  36
ATOM     35  C   GLY A   3      -4.548  13.047  -1.146  0.00  0.00    +0.243 C 
ATOM     36  N   ILE A   4      -5.156  13.257   0.010  0.00  0.00    -0.297 N 
ATOM     37  H   ILE A   4      -6.081  13.730   0.053  0.00  0.00    +0.150 HD
ATOM     38  O   GLY A   3      -3.399  12.630  -1.217  0.00  0.00    -0.273 OA
BRANCH  35  39
ATOM     39  CA  GLY A   3      -5.286  13.410  -2.404  0.00  0.00    +0.176 C 
BRANCH  39  41
ATOM     40  C   GLY A   2      -4.578  13.080  -4.671  0.00  0.00    +0.243 C 
ATOM     41  N   GLY A   3      -4.572  12.673  -3.413  0.00  0.00    -0.295 N 
ATOM     42  H   GLY A   3      -4.048  11.814  -3.151  0.00  0.00    +0.150 HD
ATOM     43  O   GLY A   2      -5.213  14.059  -5.051  0.00  0.00    -0.273 OA
BRANCH  40  44
ATOM     44  CA  GLY A   2      -3.747  12.245  -5.621  0.00  0.00    +0.176 C 
BRANCH  44  46
ATOM     45  C   ILE A   1      -4.548  11.334  -7.694  0.00  0.00    +0.238 C 
ATOM     46  N   GLY A   2      -4.007  12.359  -7.042  0.00  0.00    -0.296 N 
ATOM     47  H   GLY A   2      -3.772  13.236  -7.548  0.00  0.00    +0.150 HD
ATOM     48  O   ILE A   1      -4.869  10.284  -7.145  0.00  0.00    -0.274 OA
BRANCH  45  49
ATOM     49  CA  ILE A   1      -4.787  11.523  -9.173  0.00  0.00    +0.145 C 
BRANCH  49  50
ATOM     50  N   ILE A   1      -4.689  10.237  -9.869  0.00  0.00    -0.238 NA
ATOM     51  H   ILE A   1      -5.164   9.401  -9.473  0.00  0.00    +0.142 HD
ENDBRANCH  49  50
BRANCH  49  52
ATOM     52  CB  ILE A   1      -6.176  12.195  -9.334  0.00  0.00    +0.025 C 
ATOM     53  CG2 ILE A   1      -6.528  12.285 -10.808  0.00  0.00    +0.002 C 
BRANCH  52  54
ATOM     54  CG1 ILE A   1      -7.247  11.421  -8.558  0.00  0.00    +0.002 C 
ATOM     55  CD1 ILE A   1      -8.588  12.105  -8.523  0.00  0.00    +0.000 C 
ENDBRANCH  52  54
ENDBRANCH  49  52
ENDBRANCH  45  49
ENDBRANCH  44  46
ENDBRANCH  40  44
ENDBRANCH  39  41
ENDBRANCH  35  39
ENDBRANCH  34  36
BRANCH  34  56
ATOM     56  CB  ILE A   4      -5.037  13.517   2.479  0.00  0.00    +0.027 C 
ATOM     57  CG2 ILE A   4      -4.974  12.607   3.696  0.00  0.00    +0.002 C 
BRANCH  56  58
ATOM     58  CG1 ILE A   4      -4.253  14.815   2.680  0.00  0.00    +0.002 C 
ATOM     59  CD1 ILE A   4      -4.370  15.419   4.058  0.00  0.00    +0.000 C 
ENDBRANCH  56  58
ENDBRANCH  34  56
ENDBRANCH   1  34
TORSDOF 24
REMARK  Name = ../refined-set-2016/1m0b/1m0b_pocket.pdb
REMARK  232 active torsions:
REMARK  status: ('A' for Active; 'I' for Inactive)
REMARK    1  A    between atoms: _1  and  _3
REMARK    2  A    between atoms: _3  and  _4
REMARK    3  A    between atoms: _3  and  _6
REMARK    4  A    between atoms: _6  and  _7
REMARK    5  A    between atoms: _7  and  _8
REMARK    6  A    between atoms: _8  and  _9
REMARK    7  A    between atoms: _18  and  _20
REMARK    8  A    between atoms: _20  and  _21
REMARK    9  A    between atoms: _20  and  _23
REMARK   10  A    between atoms: _23  and  _24
REMARK   11  A    between atoms: _27  and  _29
REMARK   12  A    between atoms: _29  and  _30
REMARK   13  A    between atoms: _29  and  _32
REMARK   14  A    between atoms: _32  and  _33
REMARK   15  A    between atoms: _36  and  _38
REMARK   16  A    between atoms: _38  and  _39
REMARK   17  A    between atoms: _38  and  _41
REMARK   18  A    between atoms: _41  and  _42
REMARK   19  A    between atoms: _45  and  _47
REMARK   20  A    between atoms: _47  and  _48
REMARK   21  A    between atoms: _47  and  _50
REMARK   22  A    between atoms: _50  and  _51
REMARK   23  A    between atoms: _54  and  _56
REMARK   24  A    between atoms: _56  and  _57
REMARK   25  A    between atoms: _59  and  _61
REMARK   26  A    between atoms: _61  and  _62
REMARK   27  A    between atoms: _65  and  _67
REMARK   28  A    between atoms: _67  and  _68
REMARK   29  A    between atoms: _67  and  _70
REMARK   30  A    between atoms: _70  and  _71
REMARK   31  A    between atoms: _74  and  _76
REMARK   32  A    between atoms: _76  and  _77
REMARK   33  A    between atoms: _76  and  _79
REMARK   34  A    between atoms: _79  and  _80
REMARK   35  A    between atoms: _83  and  _85
REMARK   36  A    between atoms: _85  and  _86
REMARK   37  A    between atoms: _85  and  _88
REMARK   38  A    between atoms: _88  and  _89
REMARK   39  A    between atoms: _92  and  _94
REMARK   40  A    between atoms: _94  and  _95
REMARK   41  A    between atoms: _94  and  _97
REMARK   42  A    between atoms: _100  and  _102
REMARK   43  A    between atoms: _102  and  _103
REMARK   44  A    between atoms: _102  and  _105
REMARK   45  A    between atoms: _105  and  _106
REMARK   46  A    between atoms: _106  and  _107
REMARK   47  A    between atoms: _107  and  _108
REMARK   48  A    between atoms: _108  and  _109
REMARK   49  A    between atoms: _113  and  _115
REMARK   50  A    between atoms: _115  and  _116
REMARK   51  A    between atoms: _115  and  _118
REMARK   52  A    between atoms: _118  and  _119
REMARK   53  A    between atoms: _119  and  _120
REMARK   54  A    between atoms: _122  and  _124
REMARK   55  A    between atoms: _124  and  _125
REMARK   56  A    between atoms: _124  and  _127
REMARK   57  A    between atoms: _127  and  _128
REMARK   58  A    between atoms: _131  and  _133
REMARK   59  A    between atoms: _133  and  _134
REMARK   60  A    between atoms: _136  and  _138
REMARK   61  A    between atoms: _138  and  _139
REMARK   62  A    between atoms: _141  and  _143
REMARK   63  A    between atoms: _143  and  _144
REMARK   64  A    between atoms: _143  and  _146
REMARK   65  A    between atoms: _146  and  _147
REMARK   66  A    between atoms: _150  and  _152
REMARK   67  A    between atoms: _152  and  _153
REMARK   68  A    between atoms: _155  and  _157
REMARK   69  A    between atoms: _157  and  _158
REMARK   70  A    between atoms: _160  and  _162
REMARK   71  A    between atoms: _162  and  _163
REMARK   72  A    between atoms: _162  and  _165
REMARK   73  A    between atoms: _165  and  _166
REMARK   74  A    between atoms: _172  and  _174
REMARK   75  A    between atoms: _174  and  _175
REMARK   76  A    between atoms: _174  and  _177
REMARK   77  A    between atoms: _177  and  _178
REMARK   78  A    between atoms: _181  and  _183
REMARK   79  A    between atoms: _183  and  _184
REMARK   80  A    between atoms: _183  and  _186
REMARK   81  A    between atoms: _189  and  _191
REMARK   82  A    between atoms: _191  and  _192
REMARK   83  A    between atoms: _191  and  _194
REMARK   84  A    between atoms: _194  and  _195
REMARK   85  A    between atoms: _198  and  _200
REMARK   86  A    between atoms: _200  and  _201
REMARK   87  A    between atoms: _200  and  _203
REMARK   88  A    between atoms: _203  and  _204
REMARK   89  A    between atoms: _208  and  _209
REMARK   90  A    between atoms: _214  and  _216
REMARK   91  A    between atoms: _216  and  _217
REMARK   92  A    between atoms: _216  and  _219
REMARK   93  A    between atoms: _222  and  _224
REMARK   94  A    between atoms: _224  and  _225
REMARK   95  A    between atoms: _224  and  _227
REMARK   96  A    between atoms: _227  and  _228
REMARK   97  A    between atoms: _233  and  _235
REMARK   98  A    between atoms: _235  and  _236
REMARK   99  A    between atoms: _235  and  _238
REMARK  100  A    between atoms: _238  and  _239
REMARK  101  A    between atoms: _242  and  _244
REMARK  102  A    between atoms: _244  and  _245
REMARK  103  A    between atoms: _244  and  _247
REMARK  104  A    between atoms: _247  and  _248
REMARK  105  A    between atoms: _251  and  _253
REMARK  106  A    between atoms: _253  and  _254
REMARK  107  A    between atoms: _256  and  _258
REMARK  108  A    between atoms: _258  and  _259
REMARK  109  A    between atoms: _258  and  _261
REMARK  110  A    between atoms: _261  and  _262
REMARK  111  A    between atoms: _262  and  _263
REMARK  112  A    between atoms: _263  and  _264
REMARK  113  A    between atoms: _273  and  _275
REMARK  114  A    between atoms: _275  and  _276
REMARK  115  A    between atoms: _275  and  _278
REMARK  116  A    between atoms: _278  and  _279
REMARK  117  A    between atoms: _284  and  _286
REMARK  118  A    between atoms: _286  and  _287
REMARK  119  A    between atoms: _286  and  _289
REMARK  120  A    between atoms: _289  and  _290
REMARK  121  A    between atoms: _290  and  _291
REMARK  122  A    between atoms: _291  and  _292
REMARK  123  A    between atoms: _301  and  _303
REMARK  124  A    between atoms: _303  and  _304
REMARK  125  A    between atoms: _303  and  _306
REMARK  126  A    between atoms: _306  and  _307
REMARK  127  A    between atoms: _310  and  _312
REMARK  128  A    between atoms: _312  and  _313
REMARK  129  A    between atoms: _312  and  _315
REMARK  130  A    between atoms: _315  and  _316
REMARK  131  A    between atoms: _319  and  _321
REMARK  132  A    between atoms: _321  and  _322
REMARK  133  A    between atoms: _321  and  _324
REMARK  134  A    between atoms: _324  and  _325
REMARK  135  A    between atoms: _328  and  _330
REMARK  136  A    between atoms: _330  and  _331
REMARK  137  A    between atoms: _330  and  _333
REMARK  138  A    between atoms: _333  and  _334
REMARK  139  A    between atoms: _337  and  _339
REMARK  140  A    between atoms: _339  and  _340
REMARK  141  A    between atoms: _342  and  _344
REMARK  142  A    between atoms: _344  and  _345
REMARK  143  A    between atoms: _348  and  _350
REMARK  144  A    between atoms: _350  and  _351
REMARK  145  A    between atoms: _350  and  _353
REMARK  146  A    between atoms: _353  and  _354
REMARK  147  A    between atoms: _357  and  _359
REMARK  148  A    between atoms: _359  and  _360
REMARK  149  A    between atoms: _359  and  _362
REMARK  150  A    between atoms: _362  and  _363
REMARK  151  A    between atoms: _366  and  _368
REMARK  152  A    between atoms: _368  and  _369
REMARK  153  A    between atoms: _368  and  _371
REMARK  154  A    between atoms: _371  and  _372
REMARK  155  A    between atoms: _375  and  _377
REMARK  156  A    between atoms: _377  and  _378
REMARK  157  A    between atoms: _377  and  _380
REMARK  158  A    between atoms: _383  and  _385
REMARK  159  A    between atoms: _385  and  _386
REMARK  160  A    between atoms: _385  and  _388
REMARK  161  A    between atoms: _388  and  _389
REMARK  162  A    between atoms: _392  and  _394
REMARK  163  A    between atoms: _394  and  _395
REMARK  164  A    between atoms: _394  and  _397
REMARK  165  A    between atoms: _397  and  _398
REMARK  166  A    between atoms: _398  and  _399
REMARK  167  A    between atoms: _399  and  _400
REMARK  168  A    between atoms: _400  and  _401
REMARK  169  A    between atoms: _405  and  _407
REMARK  170  A    between atoms: _407  and  _408
REMARK  171  A    between atoms: _407  and  _410
REMARK  172  A    between atoms: _410  and  _411
REMARK  173  A    between atoms: _414  and  _416
REMARK  174  A    between atoms: _416  and  _417
REMARK  175  A    between atoms: _419  and  _421
REMARK  176  A    between atoms: _421  and  _422
REMARK  177  A    between atoms: _424  and  _426
REMARK  178  A    between atoms: _426  and  _427
REMARK  179  A    between atoms: _426  and  _429
REMARK  180  A    between atoms: _429  and  _430
REMARK  181  A    between atoms: _433  and  _435
REMARK  182  A    between atoms: _435  and  _436
REMARK  183  A    between atoms: _438  and  _440
REMARK  184  A    between atoms: _440  and  _441
REMARK  185  A    between atoms: _443  and  _445
REMARK  186  A    between atoms: _445  and  _446
REMARK  187  A    between atoms: _445  and  _448
REMARK  188  A    between atoms: _448  and  _449
REMARK  189  A    between atoms: _455  and  _457
REMARK  190  A    between atoms: _457  and  _458
REMARK  191  A    between atoms: _457  and  _460
REMARK  192  A    between atoms: _460  and  _461
REMARK  193  A    between atoms: _464  and  _466
REMARK  194  A    between atoms: _466  and  _467
REMARK  195  A    between atoms: _466  and  _469
REMARK  196  A    between atoms: _472  and  _474
REMARK  197  A    between atoms: _474  and  _475
REMARK  198  A    between atoms: _474  and  _477
REMARK  199  A    between atoms: _477  and  _478
REMARK  200  A    between atoms: _482  and  _483
REMARK  201  A    between atoms: _488  and  _490
REMARK  202  A    between atoms: _490  and  _491
REMARK  203  A    between atoms: _490  and  _493
REMARK  204  A    between atoms: _493  and  _494
REMARK  205  A    between atoms: _498  and  _499
REMARK  206  A    between atoms: _504  and  _506
REMARK  207  A    between atoms: _506  and  _507
REMARK  208  A    between atoms: _506  and  _509
REMARK  209  A    between atoms: _512  and  _514
REMARK  210  A    between atoms: _514  and  _515
REMARK  211  A    between atoms: _514  and  _517
REMARK  212  A    between atoms: _517  and  _518
REMARK  213  A    between atoms: _523  and  _525
REMARK  214  A    between atoms: _525  and  _526
REMARK  215  A    between atoms: _525  and  _528
REMARK  216  A    between atoms: _528  and  _529
REMARK  217  A    between atoms: _532  and  _534
REMARK  218  A    between atoms: _534  and  _535
REMARK  219  A    between atoms: _534  and  _537
REMARK  220  A    between atoms: _537  and  _538
REMARK  221  A    between atoms: _541  and  _543
REMARK  222  A    between atoms: _543  and  _544
REMARK  223  A    between atoms: _546  and  _548
REMARK  224  A    between atoms: _548  and  _549
REMARK  225  A    between atoms: _548  and  _551
REMARK  226  A    between atoms: _551  and  _552
REMARK  227  A    between atoms: _552  and  _553
REMARK  228  A    between atoms: _553  and  _554
REMARK  229  A    between atoms: _563  and  _565
REMARK  230  A    between atoms: _565  and  _566
REMARK  231  A    between atoms: _565  and  _568
REMARK  232  A    between atoms: _568  and  _569
REMARK                            x       y       z     vdW  Elec       q    Type
REMARK                         _______ _______ _______ _____ _____    ______ ____
ROOT
ATOM      1  CA  VAL A   1      -9.813   7.192 -12.170  0.00  0.00    +0.133 C 
ENDROOT
BRANCH   1   2
ATOM      2  CB  VAL A   1     -10.242   8.577 -11.608  0.00  0.00    +0.023 C 
ATOM      3  CG2 VAL A   1     -10.021   8.616 -10.095  0.00  0.00    +0.002 C 
ATOM      4  CG1 VAL A   1      -9.484   9.703 -12.312  0.00  0.00    +0.002 C 
ENDBRANCH   1   2
BRANCH   1   5
ATOM      5  N   VAL A   1      -8.465   6.834 -11.752  0.00  0.00    -0.239 NA
ATOM      6  H   VAL A   1      -7.660   7.395 -12.097  0.00  0.00    +0.142 HD
ENDBRANCH   1   5
BRANCH   1   7
ATOM      7  C   VAL A   1      -9.857   7.231 -13.706  0.00  0.00    +0.224 C 
ATOM      8  O   VAL A   1      -8.859   6.957 -14.369  0.00  0.00    -0.287 OA
ENDBRANCH   1   7
TORSDOF 3
REMARK  Name = ../refined-set-2016/1m0b/1m0b_pocket.pdb
REMARK  232 active torsions:
REMARK  status: ('A' for Active; 'I' for Inactive)
REMARK    1  A    between atoms: _1  and  _3
REMARK    2  A    between atoms: _3  and  _4
REMARK    3  A    between atoms: _3  and  _6
REMARK    4  A    between atoms: _6  and  _7
REMARK    5  A    between atoms: _7  and  _8
REMARK    6  A    between atoms: _8  and  _9
REMARK    7  A    between atoms: _18  and  _20
REMARK    8  A    between atoms: _20  and  _21
REMARK    9  A    between atoms: _20  and  _23
REMARK   10  A    between atoms: _23  and  _24
REMARK   11  A    between atoms: _27  and  _29
REMARK   12  A    between atoms: _29  and  _30
REMARK   13  A    between atoms: _29  and  _32
REMARK   14  A    between atoms: _32  and  _33
REMARK   15  A    between atoms: _36  and  _38
REMARK   16  A    between atoms: _38  and  _39
REMARK   17  A    between atoms: _38  and  _41
REMARK   18  A    between atoms: _41  and  _42
REMARK   19  A    between atoms: _45  and  _47
REMARK   20  A    between atoms: _47  and  _48
REMARK   21  A    between atoms: _47  and  _50
REMARK   22  A    between atoms: _50  and  _51
REMARK   23  A    between atoms: _54  and  _56
REMARK   24  A    between atoms: _56  and  _57
REMARK   25  A    between atoms: _59  and  _61
REMARK   26  A    between atoms: _61  and  _62
REMARK   27  A    between atoms: _65  and  _67
REMARK   28  A    between atoms: _67  and  _68
REMARK   29  A    between atoms: _67  and  _70
REMARK   30  A    between atoms: _70  and  _71
REMARK   31  A    between atoms: _74  and  _76
REMARK   32  A    between atoms: _76  and  _77
REMARK   33  A    between atoms: _76  and  _79
REMARK   34  A    between atoms: _79  and  _80
REMARK   35  A    between atoms: _83  and  _85
REMARK   36  A    between atoms: _85  and  _86
REMARK   37  A    between atoms: _85  and  _88
REMARK   38  A    between atoms: _88  and  _89
REMARK   39  A    between atoms: _92  and  _94
REMARK   40  A    between atoms: _94  and  _95
REMARK   41  A    between atoms: _94  and  _97
REMARK   42  A    between atoms: _100  and  _102
REMARK   43  A    between atoms: _102  and  _103
REMARK   44  A    between atoms: _102  and  _105
REMARK   45  A    between atoms: _105  and  _106
REMARK   46  A    between atoms: _106  and  _107
REMARK   47  A    between atoms: _107  and  _108
REMARK   48  A    between atoms: _108  and  _109
REMARK   49  A    between atoms: _113  and  _115
REMARK   50  A    between atoms: _115  and  _116
REMARK   51  A    between atoms: _115  and  _118
REMARK   52  A    between atoms: _118  and  _119
REMARK   53  A    between atoms: _119  and  _120
REMARK   54  A    between atoms: _122  and  _124
REMARK   55  A    between atoms: _124  and  _125
REMARK   56  A    between atoms: _124  and  _127
REMARK   57  A    between atoms: _127  and  _128
REMARK   58  A    between atoms: _131  and  _133
REMARK   59  A    between atoms: _133  and  _134
REMARK   60  A    between atoms: _136  and  _138
REMARK   61  A    between atoms: _138  and  _139
REMARK   62  A    between atoms: _141  and  _143
REMARK   63  A    between atoms: _143  and  _144
REMARK   64  A    between atoms: _143  and  _146
REMARK   65  A    between atoms: _146  and  _147
REMARK   66  A    between atoms: _150  and  _152
REMARK   67  A    between atoms: _152  and  _153
REMARK   68  A    between atoms: _155  and  _157
REMARK   69  A    between atoms: _157  and  _158
REMARK   70  A    between atoms: _160  and  _162
REMARK   71  A    between atoms: _162  and  _163
REMARK   72  A    between atoms: _162  and  _165
REMARK   73  A    between atoms: _165  and  _166
REMARK   74  A    between atoms: _172  and  _174
REMARK   75  A    between atoms: _174  and  _175
REMARK   76  A    between atoms: _174  and  _177
REMARK   77  A    between atoms: _177  and  _178
REMARK   78  A    between atoms: _181  and  _183
REMARK   79  A    between atoms: _183  and  _184
REMARK   80  A    between atoms: _183  and  _186
REMARK   81  A    between atoms: _189  and  _191
REMARK   82  A    between atoms: _191  and  _192
REMARK   83  A    between atoms: _191  and  _194
REMARK   84  A    between atoms: _194  and  _195
REMARK   85  A    between atoms: _198  and  _200
REMARK   86  A    between atoms: _200  and  _201
REMARK   87  A    between atoms: _200  and  _203
REMARK   88  A    between atoms: _203  and  _204
REMARK   89  A    between atoms: _208  and  _209
REMARK   90  A    between atoms: _214  and  _216
REMARK   91  A    between atoms: _216  and  _217
REMARK   92  A    between atoms: _216  and  _219
REMARK   93  A    between atoms: _222  and  _224
REMARK   94  A    between atoms: _224  and  _225
REMARK   95  A    between atoms: _224  and  _227
REMARK   96  A    between atoms: _227  and  _228
REMARK   97  A    between atoms: _233  and  _235
REMARK   98  A    between atoms: _235  and  _236
REMARK   99  A    between atoms: _235  and  _238
REMARK  100  A    between atoms: _238  and  _239
REMARK  101  A    between atoms: _242  and  _244
REMARK  102  A    between atoms: _244  and  _245
REMARK  103  A    between atoms: _244  and  _247
REMARK  104  A    between atoms: _247  and  _248
REMARK  105  A    between atoms: _251  and  _253
REMARK  106  A    between atoms: _253  and  _254
REMARK  107  A    between atoms: _256  and  _258
REMARK  108  A    between atoms: _258  and  _259
REMARK  109  A    between atoms: _258  and  _261
REMARK  110  A    between atoms: _261  and  _262
REMARK  111  A    between atoms: _262  and  _263
REMARK  112  A    between atoms: _263  and  _264
REMARK  113  A    between atoms: _273  and  _275
REMARK  114  A    between atoms: _275  and  _276
REMARK  115  A    between atoms: _275  and  _278
REMARK  116  A    between atoms: _278  and  _279
REMARK  117  A    between atoms: _284  and  _286
REMARK  118  A    between atoms: _286  and  _287
REMARK  119  A    between atoms: _286  and  _289
REMARK  120  A    between atoms: _289  and  _290
REMARK  121  A    between atoms: _290  and  _291
REMARK  122  A    between atoms: _291  and  _292
REMARK  123  A    between atoms: _301  and  _303
REMARK  124  A    between atoms: _303  and  _304
REMARK  125  A    between atoms: _303  and  _306
REMARK  126  A    between atoms: _306  and  _307
REMARK  127  A    between atoms: _310  and  _312
REMARK  128  A    between atoms: _312  and  _313
REMARK  129  A    between atoms: _312  and  _315
REMARK  130  A    between atoms: _315  and  _316
REMARK  131  A    between atoms: _319  and  _321
REMARK  132  A    between atoms: _321  and  _322
REMARK  133  A    between atoms: _321  and  _324
REMARK  134  A    between atoms: _324  and  _325
REMARK  135  A    between atoms: _328  and  _330
REMARK  136  A    between atoms: _330  and  _331
REMARK  137  A    between atoms: _330  and  _333
REMARK  138  A    between atoms: _333  and  _334
REMARK  139  A    between atoms: _337  and  _339
REMARK  140  A    between atoms: _339  and  _340
REMARK  141  A    between atoms: _342  and  _344
REMARK  142  A    between atoms: _344  and  _345
REMARK  143  A    between atoms: _348  and  _350
REMARK  144  A    between atoms: _350  and  _351
REMARK  145  A    between atoms: _350  and  _353
REMARK  146  A    between atoms: _353  and  _354
REMARK  147  A    between atoms: _357  and  _359
REMARK  148  A    between atoms: _359  and  _360
REMARK  149  A    between atoms: _359  and  _362
REMARK  150  A    between atoms: _362  and  _363
REMARK  151  A    between atoms: _366  and  _368
REMARK  152  A    between atoms: _368  and  _369
REMARK  153  A    between atoms: _368  and  _371
REMARK  154  A    between atoms: _371  and  _372
REMARK  155  A    between atoms: _375  and  _377
REMARK  156  A    between atoms: _377  and  _378
REMARK  157  A    between atoms: _377  and  _380
REMARK  158  A    between atoms: _383  and  _385
REMARK  159  A    between atoms: _385  and  _386
REMARK  160  A    between atoms: _385  and  _388
REMARK  161  A    between atoms: _388  and  _389
REMARK  162  A    between atoms: _392  and  _394
REMARK  163  A    between atoms: _394  and  _395
REMARK  164  A    between atoms: _394  and  _397
REMARK  165  A    between atoms: _397  and  _398
REMARK  166  A    between atoms: _398  and  _399
REMARK  167  A    between atoms: _399  and  _400
REMARK  168  A    between atoms: _400  and  _401
REMARK  169  A    between atoms: _405  and  _407
REMARK  170  A    between atoms: _407  and  _408
REMARK  171  A    between atoms: _407  and  _410
REMARK  172  A    between atoms: _410  and  _411
REMARK  173  A    between atoms: _414  and  _416
REMARK  174  A    between atoms: _416  and  _417
REMARK  175  A    between atoms: _419  and  _421
REMARK  176  A    between atoms: _421  and  _422
REMARK  177  A    between atoms: _424  and  _426
REMARK  178  A    between atoms: _426  and  _427
REMARK  179  A    between atoms: _426  and  _429
REMARK  180  A    between atoms: _429  and  _430
REMARK  181  A    between atoms: _433  and  _435
REMARK  182  A    between atoms: _435  and  _436
REMARK  183  A    between atoms: _438  and  _440
REMARK  184  A    between atoms: _440  and  _441
REMARK  185  A    between atoms: _443  and  _445
REMARK  186  A    between atoms: _445  and  _446
REMARK  187  A    between atoms: _445  and  _448
REMARK  188  A    between atoms: _448  and  _449
REMARK  189  A    between atoms: _455  and  _457
REMARK  190  A    between atoms: _457  and  _458
REMARK  191  A    between atoms: _457  and  _460
REMARK  192  A    between atoms: _460  and  _461
REMARK  193  A    between atoms: _464  and  _466
REMARK  194  A    between atoms: _466  and  _467
REMARK  195  A    between atoms: _466  and  _469
REMARK  196  A    between atoms: _472  and  _474
REMARK  197  A    between atoms: _474  and  _475
REMARK  198  A    between atoms: _474  and  _477
REMARK  199  A    between atoms: _477  and  _478
REMARK  200  A    between atoms: _482  and  _483
REMARK  201  A    between atoms: _488  and  _490
REMARK  202  A    between atoms: _490  and  _491
REMARK  203  A    between atoms: _490  and  _493
REMARK  204  A    between atoms: _493  and  _494
REMARK  205  A    between atoms: _498  and  _499
REMARK  206  A    between atoms: _504  and  _506
REMARK  207  A    between atoms: _506  and  _507
REMARK  208  A    between atoms: _506  and  _509
REMARK  209  A    between atoms: _512  and  _514
REMARK  210  A    between atoms: _514  and  _515
REMARK  211  A    between atoms: _514  and  _517
REMARK  212  A    between atoms: _517  and  _518
REMARK  213  A    between atoms: _523  and  _525
REMARK  214  A    between atoms: _525  and  _526
REMARK  215  A    between atoms: _525  and  _528
REMARK  216  A    between atoms: _528  and  _529
REMARK  217  A    between atoms: _532  and  _534
REMARK  218  A    between atoms: _534  and  _535
REMARK  219  A    between atoms: _534  and  _537
REMARK  220  A    between atoms: _537  and  _538
REMARK  221  A    between atoms: _541  and  _543
REMARK  222  A    between atoms: _543  and  _544
REMARK  223  A    between atoms: _546  and  _548
REMARK  224  A    between atoms: _548  and  _549
REMARK  225  A    between atoms: _548  and  _551
REMARK  226  A    between atoms: _551  and  _552
REMARK  227  A    between atoms: _552  and  _553
REMARK  228  A    between atoms: _553  and  _554
REMARK  229  A    between atoms: _563  and  _565
REMARK  230  A    between atoms: _565  and  _566
REMARK  231  A    between atoms: _565  and  _568
REMARK  232  A    between atoms: _568  and  _569
REMARK                            x       y       z     vdW  Elec       q    Type
REMARK                         _______ _______ _______ _____ _____    ______ ____
ROOT
ATOM      1  CA  LEU A   1     -13.176  11.973 -13.027  0.00  0.00    +0.133 C 
ENDROOT
BRANCH   1   2
ATOM      2  N   LEU A   1     -13.977  13.192 -13.179  0.00  0.00    -0.239 NA
ATOM      3  H   LEU A   1     -14.222  13.751 -12.337  0.00  0.00    +0.142 HD
ENDBRANCH   1   2
BRANCH   1   4
ATOM      4  C   LEU A   1     -13.983  10.893 -12.308  0.00  0.00    +0.224 C 
ATOM      5  O   LEU A   1     -14.712  11.178 -11.349  0.00  0.00    -0.287 OA
ENDBRANCH   1   4
BRANCH   1   6
ATOM      6  CB  LEU A   1     -11.881  12.275 -12.261  0.00  0.00    +0.025 C 
BRANCH   6   7
ATOM      7  CG  LEU A   1     -11.087  13.450 -12.836  0.00  0.00    +0.002 C 
ATOM      8  CD2 LEU A   1      -9.842  13.668 -11.970  0.00  0.00    +0.000 C 
ATOM      9  CD1 LEU A   1     -10.727  13.189 -14.296  0.00  0.00    +0.000 C 
ENDBRANCH   6   7
ENDBRANCH   1   6
TORSDOF 4
REMARK  Name = ../refined-set-2016/1m0b/1m0b_pocket.pdb
REMARK  232 active torsions:
REMARK  status: ('A' for Active; 'I' for Inactive)
REMARK    1  A    between atoms: _1  and  _3
REMARK    2  A    between atoms: _3  and  _4
REMARK    3  A    between atoms: _3  and  _6
REMARK    4  A    between atoms: _6  and  _7
REMARK    5  A    between atoms: _7  and  _8
REMARK    6  A    between atoms: _8  and  _9
REMARK    7  A    between atoms: _18  and  _20
REMARK    8  A    between atoms: _20  and  _21
REMARK    9  A    between atoms: _20  and  _23
REMARK   10  A    between atoms: _23  and  _24
REMARK   11  A    between atoms: _27  and  _29
REMARK   12  A    between atoms: _29  and  _30
REMARK   13  A    between atoms: _29  and  _32
REMARK   14  A    between atoms: _32  and  _33
REMARK   15  A    between atoms: _36  and  _38
REMARK   16  A    between atoms: _38  and  _39
REMARK   17  A    between atoms: _38  and  _41
REMARK   18  A    between atoms: _41  and  _42
REMARK   19  A    between atoms: _45  and  _47
REMARK   20  A    between atoms: _47  and  _48
REMARK   21  A    between atoms: _47  and  _50
REMARK   22  A    between atoms: _50  and  _51
REMARK   23  A    between atoms: _54  and  _56
REMARK   24  A    between atoms: _56  and  _57
REMARK   25  A    between atoms: _59  and  _61
REMARK   26  A    between atoms: _61  and  _62
REMARK   27  A    between atoms: _65  and  _67
REMARK   28  A    between atoms: _67  and  _68
REMARK   29  A    between atoms: _67  and  _70
REMARK   30  A    between atoms: _70  and  _71
REMARK   31  A    between atoms: _74  and  _76
REMARK   32  A    between atoms: _76  and  _77
REMARK   33  A    between atoms: _76  and  _79
REMARK   34  A    between atoms: _79  and  _80
REMARK   35  A    between atoms: _83  and  _85
REMARK   36  A    between atoms: _85  and  _86
REMARK   37  A    between atoms: _85  and  _88
REMARK   38  A    between atoms: _88  and  _89
REMARK   39  A    between atoms: _92  and  _94
REMARK   40  A    between atoms: _94  and  _95
REMARK   41  A    between atoms: _94  and  _97
REMARK   42  A    between atoms: _100  and  _102
REMARK   43  A    between atoms: _102  and  _103
REMARK   44  A    between atoms: _102  and  _105
REMARK   45  A    between atoms: _105  and  _106
REMARK   46  A    between atoms: _106  and  _107
REMARK   47  A    between atoms: _107  and  _108
REMARK   48  A    between atoms: _108  and  _109
REMARK   49  A    between atoms: _113  and  _115
REMARK   50  A    between atoms: _115  and  _116
REMARK   51  A    between atoms: _115  and  _118
REMARK   52  A    between atoms: _118  and  _119
REMARK   53  A    between atoms: _119  and  _120
REMARK   54  A    between atoms: _122  and  _124
REMARK   55  A    between atoms: _124  and  _125
REMARK   56  A    between atoms: _124  and  _127
REMARK   57  A    between atoms: _127  and  _128
REMARK   58  A    between atoms: _131  and  _133
REMARK   59  A    between atoms: _133  and  _134
REMARK   60  A    between atoms: _136  and  _138
REMARK   61  A    between atoms: _138  and  _139
REMARK   62  A    between atoms: _141  and  _143
REMARK   63  A    between atoms: _143  and  _144
REMARK   64  A    between atoms: _143  and  _146
REMARK   65  A    between atoms: _146  and  _147
REMARK   66  A    between atoms: _150  and  _152
REMARK   67  A    between atoms: _152  and  _153
REMARK   68  A    between atoms: _155  and  _157
REMARK   69  A    between atoms: _157  and  _158
REMARK   70  A    between atoms: _160  and  _162
REMARK   71  A    between atoms: _162  and  _163
REMARK   72  A    between atoms: _162  and  _165
REMARK   73  A    between atoms: _165  and  _166
REMARK   74  A    between atoms: _172  and  _174
REMARK   75  A    between atoms: _174  and  _175
REMARK   76  A    between atoms: _174  and  _177
REMARK   77  A    between atoms: _177  and  _178
REMARK   78  A    between atoms: _181  and  _183
REMARK   79  A    between atoms: _183  and  _184
REMARK   80  A    between atoms: _183  and  _186
REMARK   81  A    between atoms: _189  and  _191
REMARK   82  A    between atoms: _191  and  _192
REMARK   83  A    between atoms: _191  and  _194
REMARK   84  A    between atoms: _194  and  _195
REMARK   85  A    between atoms: _198  and  _200
REMARK   86  A    between atoms: _200  and  _201
REMARK   87  A    between atoms: _200  and  _203
REMARK   88  A    between atoms: _203  and  _204
REMARK   89  A    between atoms: _208  and  _209
REMARK   90  A    between atoms: _214  and  _216
REMARK   91  A    between atoms: _216  and  _217
REMARK   92  A    between atoms: _216  and  _219
REMARK   93  A    between atoms: _222  and  _224
REMARK   94  A    between atoms: _224  and  _225
REMARK   95  A    between atoms: _224  and  _227
REMARK   96  A    between atoms: _227  and  _228
REMARK   97  A    between atoms: _233  and  _235
REMARK   98  A    between atoms: _235  and  _236
REMARK   99  A    between atoms: _235  and  _238
REMARK  100  A    between atoms: _238  and  _239
REMARK  101  A    between atoms: _242  and  _244
REMARK  102  A    between atoms: _244  and  _245
REMARK  103  A    between atoms: _244  and  _247
REMARK  104  A    between atoms: _247  and  _248
REMARK  105  A    between atoms: _251  and  _253
REMARK  106  A    between atoms: _253  and  _254
REMARK  107  A    between atoms: _256  and  _258
REMARK  108  A    between atoms: _258  and  _259
REMARK  109  A    between atoms: _258  and  _261
REMARK  110  A    between atoms: _261  and  _262
REMARK  111  A    between atoms: _262  and  _263
REMARK  112  A    between atoms: _263  and  _264
REMARK  113  A    between atoms: _273  and  _275
REMARK  114  A    between atoms: _275  and  _276
REMARK  115  A    between atoms: _275  and  _278
REMARK  116  A    between atoms: _278  and  _279
REMARK  117  A    between atoms: _284  and  _286
REMARK  118  A    between atoms: _286  and  _287
REMARK  119  A    between atoms: _286  and  _289
REMARK  120  A    between atoms: _289  and  _290
REMARK  121  A    between atoms: _290  and  _291
REMARK  122  A    between atoms: _291  and  _292
REMARK  123  A    between atoms: _301  and  _303
REMARK  124  A    between atoms: _303  and  _304
REMARK  125  A    between atoms: _303  and  _306
REMARK  126  A    between atoms: _306  and  _307
REMARK  127  A    between atoms: _310  and  _312
REMARK  128  A    between atoms: _312  and  _313
REMARK  129  A    between atoms: _312  and  _315
REMARK  130  A    between atoms: _315  and  _316
REMARK  131  A    between atoms: _319  and  _321
REMARK  132  A    between atoms: _321  and  _322
REMARK  133  A    between atoms: _321  and  _324
REMARK  134  A    between atoms: _324  and  _325
REMARK  135  A    between atoms: _328  and  _330
REMARK  136  A    between atoms: _330  and  _331
REMARK  137  A    between atoms: _330  and  _333
REMARK  138  A    between atoms: _333  and  _334
REMARK  139  A    between atoms: _337  and  _339
REMARK  140  A    between atoms: _339  and  _340
REMARK  141  A    between atoms: _342  and  _344
REMARK  142  A    between atoms: _344  and  _345
REMARK  143  A    between atoms: _348  and  _350
REMARK  144  A    between atoms: _350  and  _351
REMARK  145  A    between atoms: _350  and  _353
REMARK  146  A    between atoms: _353  and  _354
REMARK  147  A    between atoms: _357  and  _359
REMARK  148  A    between atoms: _359  and  _360
REMARK  149  A    between atoms: _359  and  _362
REMARK  150  A    between atoms: _362  and  _363
REMARK  151  A    between atoms: _366  and  _368
REMARK  152  A    between atoms: _368  and  _369
REMARK  153  A    between atoms: _368  and  _371
REMARK  154  A    between atoms: _371  and  _372
REMARK  155  A    between atoms: _375  and  _377
REMARK  156  A    between atoms: _377  and  _378
REMARK  157  A    between atoms: _377  and  _380
REMARK  158  A    between atoms: _383  and  _385
REMARK  159  A    between atoms: _385  and  _386
REMARK  160  A    between atoms: _385  and  _388
REMARK  161  A    between atoms: _388  and  _389
REMARK  162  A    between atoms: _392  and  _394
REMARK  163  A    between atoms: _394  and  _395
REMARK  164  A    between atoms: _394  and  _397
REMARK  165  A    between atoms: _397  and  _398
REMARK  166  A    between atoms: _398  and  _399
REMARK  167  A    between atoms: _399  and  _400
REMARK  168  A    between atoms: _400  and  _401
REMARK  169  A    between atoms: _405  and  _407
REMARK  170  A    between atoms: _407  and  _408
REMARK  171  A    between atoms: _407  and  _410
REMARK  172  A    between atoms: _410  and  _411
REMARK  173  A    between atoms: _414  and  _416
REMARK  174  A    between atoms: _416  and  _417
REMARK  175  A    between atoms: _419  and  _421
REMARK  176  A    between atoms: _421  and  _422
REMARK  177  A    between atoms: _424  and  _426
REMARK  178  A    between atoms: _426  and  _427
REMARK  179  A    between atoms: _426  and  _429
REMARK  180  A    between atoms: _429  and  _430
REMARK  181  A    between atoms: _433  and  _435
REMARK  182  A    between atoms: _435  and  _436
REMARK  183  A    between atoms: _438  and  _440
REMARK  184  A    between atoms: _440  and  _441
REMARK  185  A    between atoms: _443  and  _445
REMARK  186  A    between atoms: _445  and  _446
REMARK  187  A    between atoms: _445  and  _448
REMARK  188  A    between atoms: _448  and  _449
REMARK  189  A    between atoms: _455  and  _457
REMARK  190  A    between atoms: _457  and  _458
REMARK  191  A    between atoms: _457  and  _460
REMARK  192  A    between atoms: _460  and  _461
REMARK  193  A    between atoms: _464  and  _466
REMARK  194  A    between atoms: _466  and  _467
REMARK  195  A    between atoms: _466  and  _469
REMARK  196  A    between atoms: _472  and  _474
REMARK  197  A    between atoms: _474  and  _475
REMARK  198  A    between atoms: _474  and  _477
REMARK  199  A    between atoms: _477  and  _478
REMARK  200  A    between atoms: _482  and  _483
REMARK  201  A    between atoms: _488  and  _490
REMARK  202  A    between atoms: _490  and  _491
REMARK  203  A    between atoms: _490  and  _493
REMARK  204  A    between atoms: _493  and  _494
REMARK  205  A    between atoms: _498  and  _499
REMARK  206  A    between atoms: _504  and  _506
REMARK  207  A    between atoms: _506  and  _507
REMARK  208  A    between atoms: _506  and  _509
REMARK  209  A    between atoms: _512  and  _514
REMARK  210  A    between atoms: _514  and  _515
REMARK  211  A    between atoms: _514  and  _517
REMARK  212  A    between atoms: _517  and  _518
REMARK  213  A    between atoms: _523  and  _525
REMARK  214  A    between atoms: _525  and  _526
REMARK  215  A    between atoms: _525  and  _528
REMARK  216  A    between atoms: _528  and  _529
REMARK  217  A    between atoms: _532  and  _534
REMARK  218  A    between atoms: _534  and  _535
REMARK  219  A    between atoms: _534  and  _537
REMARK  220  A    between atoms: _537  and  _538
REMARK  221  A    between atoms: _541  and  _543
REMARK  222  A    between atoms: _543  and  _544
REMARK  223  A    between atoms: _546  and  _548
REMARK  224  A    between atoms: _548  and  _549
REMARK  225  A    between atoms: _548  and  _551
REMARK  226  A    between atoms: _551  and  _552
REMARK  227  A    between atoms: _552  and  _553
REMARK  228  A    between atoms: _553  and  _554
REMARK  229  A    between atoms: _563  and  _565
REMARK  230  A    between atoms: _565  and  _566
REMARK  231  A    between atoms: _565  and  _568
REMARK  232  A    between atoms: _568  and  _569
REMARK                            x       y       z     vdW  Elec       q    Type
REMARK                         _______ _______ _______ _____ _____    ______ ____
ROOT
ATOM      1  CA  ILE A   6     -16.282  15.702  -4.963  0.00  0.00    +0.149 C 
ENDROOT
BRANCH   1   2
ATOM      2  C   ILE A   6     -16.406  16.591  -6.187  0.00  0.00    +0.241 C 
ATOM      3  N   ILE A   7     -16.917  17.801  -5.970  0.00  0.00    -0.297 N 
ATOM      4  H   ILE A   7     -17.231  18.043  -5.009  0.00  0.00    +0.150 HD
ATOM      5  O   ILE A   6     -16.066  16.176  -7.305  0.00  0.00    -0.273 OA
BRANCH   3   6
ATOM      6  CA  ILE A   7     -17.056  18.806  -7.025  0.00  0.00    +0.149 C 
BRANCH   6   7
ATOM      7  C   ILE A   7     -15.880  19.738  -6.786  0.00  0.00    +0.241 C 
ATOM      8  O   ILE A   7     -15.839  20.417  -5.773  0.00  0.00    -0.273 OA
ATOM      9  N   GLY A   8     -14.921  19.746  -7.706  0.00  0.00    -0.295 N 
ATOM     10  H   GLY A   8     -15.021  19.154  -8.555  0.00  0.00    +0.150 HD
BRANCH   9  11
ATOM     11  CA  GLY A   8     -13.737  20.568  -7.543  0.00  0.00    +0.176 C 
BRANCH  11  12
ATOM     12  C   GLY A   8     -13.832  21.981  -8.103  0.00  0.00    +0.243 C 
ATOM     13  N   ARG A   9     -12.732  22.716  -8.037  0.00  0.00    -0.297 N 
ATOM     14  H   ARG A   9     -11.857  22.311  -7.647  0.00  0.00    +0.150 HD
ATOM     15  O   GLY A   8     -14.861  22.397  -8.610  0.00  0.00    -0.273 OA
BRANCH  13  16
ATOM     16  CA  ARG A   9     -12.750  24.074  -8.505  0.00  0.00    +0.149 C 
BRANCH  16  17
ATOM     17  C   ARG A   9     -13.018  24.179  -9.980  0.00  0.00    +0.241 C 
ATOM     18  O   ARG A   9     -13.465  25.233 -10.445  0.00  0.00    -0.273 OA
ATOM     19  N   ASN A  10     -12.776  23.107 -10.723  0.00  0.00    -0.298 N 
ATOM     20  H   ASN A  10     -12.432  22.229 -10.284  0.00  0.00    +0.150 HD
BRANCH  19  21
ATOM     21  CA  ASN A  10     -12.997  23.173 -12.154  0.00  0.00    +0.146 C 
BRANCH  21  22
ATOM     22  C   ASN A  10     -14.440  23.416 -12.475  0.00  0.00    +0.227 C 
ATOM     23  O   ASN A  10     -14.752  24.131 -13.427  0.00  0.00    -0.286 OA
ENDBRANCH  21  22
BRANCH  21  24
ATOM     24  CB  ASN A  10     -12.488  21.912 -12.852  0.00  0.00    +0.112 C 
BRANCH  24  25
ATOM     25  CG  ASN A  10     -13.312  20.701 -12.560  0.00  0.00    +0.222 C 
ATOM     26  OD1 ASN A  10     -13.335  20.212 -11.451  0.00  0.00    -0.275 OA
ATOM     27  ND2 ASN A  10     -13.988  20.196 -13.572  0.00  0.00    -0.329 N 
ATOM     28 HD21 ASN A  10     -14.570  19.345 -13.436  0.00  0.00    +0.145 HD
ATOM     29 HD22 ASN A  10     -13.939  20.648 -14.507  0.00  0.00    +0.145 HD
ENDBRANCH  24  25
ENDBRANCH  21  24
ENDBRANCH  19  21
ENDBRANCH  16  17
BRANCH  16  30
ATOM     30  CB  ARG A   9     -11.438  24.779  -8.158  0.00  0.00    +0.033 C 
BRANCH  30  31
ATOM     31  CG  ARG A   9     -11.282  25.074  -6.671  0.00  0.00    +0.045 C 
BRANCH  31  32
ATOM     32  CD  ARG A   9      -9.978  25.798  -6.358  0.00  0.00    +0.174 C 
BRANCH  32  33
ATOM     33  NE  ARG A   9      -8.784  25.078  -6.815  0.00  0.00    -0.265 N 
ATOM     34  HE  ARG A   9      -8.404  24.331  -6.200  0.00  0.00    +0.259 HD
ATOM     35  CZ  ARG A   9      -8.156  25.315  -7.959  0.00  0.00    +0.342 C 
ATOM     36  NH2 ARG A   9      -7.074  24.621  -8.272  0.00  0.00    -0.292 N 
ATOM     37 HH21 ARG A   9      -6.718  23.892  -7.622  0.00  0.00    +0.255 HD
ATOM     38 HH22 ARG A   9      -6.580  24.805  -9.168  0.00  0.00    +0.255 HD
ATOM     39  NH1 ARG A   9      -8.601  26.260  -8.782  0.00  0.00    -0.292 N 
ATOM     40 HH11 ARG A   9      -9.443  26.815  -8.529  0.00  0.00    +0.255 HD
ATOM     41 HH12 ARG A   9      -8.107  26.444  -9.678  0.00  0.00    +0.255 HD
ENDBRANCH  32  33
ENDBRANCH  31  32
ENDBRANCH  30  31
ENDBRANCH  16  30
ENDBRANCH  13  16
ENDBRANCH  11  12
ENDBRANCH   9  11
ENDBRANCH   6   7
BRANCH   6  42
ATOM     42  CB  ILE A   7     -18.311  19.619  -6.855  0.00  0.00    +0.027 C 
ATOM     43  CG2 ILE A   7     -18.440  20.572  -8.037  0.00  0.00    +0.002 C 
BRANCH  42  44
ATOM     44  CG1 ILE A   7     -19.518  18.685  -6.647  0.00  0.00    +0.002 C 
ATOM     45  CD1 ILE A   7     -19.801  17.712  -7.777  0.00  0.00    +0.000 C 
ENDBRANCH  42  44
ENDBRANCH   6  42
ENDBRANCH   3   6
ENDBRANCH   1   2
BRANCH   1  48
ATOM     46  C   ASN A   5     -17.947  13.991  -4.441  0.00  0.00    +0.241 C 
ATOM     47  O   ASN A   5     -18.425  14.653  -3.526  0.00  0.00    -0.273 OA
ATOM     48  N   ILE A   6     -16.935  14.420  -5.189  0.00  0.00    -0.297 N 
ATOM     49  H   ILE A   6     -16.597  13.817  -5.966  0.00  0.00    +0.150 HD
BRANCH  46  50
ATOM     50  CA  ASN A   5     -18.502  12.601  -4.779  0.00  0.00    +0.158 C 
BRANCH  50  53
ATOM     51  C   VAL A   4     -17.404  11.393  -2.969  0.00  0.00    +0.241 C 
ATOM     52  O   VAL A   4     -16.290  11.493  -3.488  0.00  0.00    -0.273 OA
ATOM     53  N   ASN A   5     -18.523  11.861  -3.526  0.00  0.00    -0.297 N 
ATOM     54  H   ASN A   5     -19.433  11.693  -3.052  0.00  0.00    +0.150 HD
BRANCH  51  55
ATOM     55  CA  VAL A   4     -17.567  10.679  -1.635  0.00  0.00    +0.149 C 
BRANCH  55  58
ATOM     56  C   PRO A   3     -16.725   8.458  -1.050  0.00  0.00    +0.241 C 
ATOM     57  O   PRO A   3     -17.855   8.047  -0.758  0.00  0.00    -0.273 OA
ATOM     58  N   VAL A   4     -16.497   9.703  -1.470  0.00  0.00    -0.297 N 
ATOM     59  H   VAL A   4     -15.521   9.988  -1.688  0.00  0.00    +0.150 HD
BRANCH  56  62
ATOM     60  C   THR A   2     -14.679   7.522  -3.227  0.00  0.00    +0.246 C 
ATOM     61  N   PRO A   3     -14.459   7.821  -1.935  0.00  0.00    -0.272 N 
ATOM     62  CA  PRO A   3     -15.487   7.544  -0.924  0.00  0.00    +0.152 C 
ATOM     63  CB  PRO A   3     -14.743   7.761   0.403  0.00  0.00    +0.031 C 
ATOM     64  CG  PRO A   3     -13.267   7.770   0.036  0.00  0.00    +0.024 C 
ATOM     65  CD  PRO A   3     -13.254   8.404  -1.317  0.00  0.00    +0.094 C 
ATOM     66  O   THR A   2     -15.726   7.011  -3.601  0.00  0.00    -0.273 OA
BRANCH  60  67
ATOM     67  CA  THR A   2     -13.569   7.830  -4.230  0.00  0.00    +0.176 C 
BRANCH  67  70
ATOM     68  C   PRO A   1     -12.903   5.622  -5.052  0.00  0.00    +0.239 C 
ATOM     69  O   PRO A   1     -12.317   5.356  -3.998  0.00  0.00    -0.274 OA
ATOM     70  N   THR A   2     -13.531   6.782  -5.258  0.00  0.00    -0.295 N 
ATOM     71  H   THR A   2     -14.005   6.947  -6.169  0.00  0.00    +0.150 HD
BRANCH  68  73
ATOM     72  N   PRO A   1     -12.777   5.055  -7.567  0.00  0.00    -0.210 NA
ATOM     73  CA  PRO A   1     -12.936   4.586  -6.179  0.00  0.00    +0.149 C 
ATOM     74  CB  PRO A   1     -11.799   3.602  -6.034  0.00  0.00    +0.028 C 
ATOM     75  CG  PRO A   1     -10.715   4.307  -6.810  0.00  0.00    +0.021 C 
ATOM     76  CD  PRO A   1     -11.447   4.669  -8.081  0.00  0.00    +0.089 C 
ENDBRANCH  68  73
ENDBRANCH  67  70
BRANCH  67  77
ATOM     77  CB  THR A   2     -13.813   9.228  -4.847  0.00  0.00    +0.137 C 
ATOM     78  CG2 THR A   2     -15.050   9.217  -5.695  0.00  0.00    +0.034 C 
BRANCH  77  79
ATOM     79  OG1 THR A   2     -13.964  10.192  -3.798  0.00  0.00    -0.382 OA
ATOM     80  HG1 THR A   2     -14.735   9.942  -3.230  0.00  0.00    +0.210 HD
ENDBRANCH  77  79
ENDBRANCH  67  77
ENDBRANCH  60  67
ENDBRANCH  56  62
ENDBRANCH  55  58
BRANCH  55  81
ATOM     81  CB  VAL A   4     -17.550  11.737  -0.494  0.00  0.00    +0.027 C 
ATOM     82  CG2 VAL A   4     -16.200  12.394  -0.411  0.00  0.00    +0.002 C 
ATOM     83  CG1 VAL A   4     -18.615  12.793  -0.740  0.00  0.00    +0.002 C 
ENDBRANCH  55  81
ENDBRANCH  51  55
ENDBRANCH  50  53
BRANCH  50  84
ATOM     84  CB  ASN A   5     -19.908  12.738  -5.362  0.00  0.00    +0.114 C 
BRANCH  84  85
ATOM     85  CG  ASN A   5     -20.501  11.414  -5.790  0.00  0.00    +0.222 C 
ATOM     86  ND2 ASN A   5     -21.632  11.050  -5.176  0.00  0.00    -0.329 N 
ATOM     87 HD21 ASN A   5     -22.047  11.662  -4.444  0.00  0.00    +0.145 HD
ATOM     88 HD22 ASN A   5     -22.097  10.155  -5.430  0.00  0.00    +0.145 HD
ATOM     89  OD1 ASN A   5     -19.964  10.724  -6.668  0.00  0.00    -0.275 OA
ENDBRANCH  84  85
ENDBRANCH  50  84
ENDBRANCH  46  50
ENDBRANCH   1  48
BRANCH   1  90
ATOM     90  CB  ILE A   6     -14.788  15.491  -4.665  0.00  0.00    +0.027 C 
ATOM     91  CG2 ILE A   6     -14.073  16.807  -4.591  0.00  0.00    +0.002 C 
BRANCH  90  92
ATOM     92  CG1 ILE A   6     -14.626  14.747  -3.357  0.00  0.00    +0.002 C 
ATOM     93  CD1 ILE A   6     -13.312  14.025  -3.283  0.00  0.00    +0.000 C 
ENDBRANCH  90  92
ENDBRANCH   1  90
TORSDOF 33
REMARK  Name = ../refined-set-2016/1m0b/1m0b_pocket.pdb
REMARK  232 active torsions:
REMARK  status: ('A' for Active; 'I' for Inactive)
REMARK    1  A    between atoms: _1  and  _3
REMARK    2  A    between atoms: _3  and  _4
REMARK    3  A    between atoms: _3  and  _6
REMARK    4  A    between atoms: _6  and  _7
REMARK    5  A    between atoms: _7  and  _8
REMARK    6  A    between atoms: _8  and  _9
REMARK    7  A    between atoms: _18  and  _20
REMARK    8  A    between atoms: _20  and  _21
REMARK    9  A    between atoms: _20  and  _23
REMARK   10  A    between atoms: _23  and  _24
REMARK   11  A    between atoms: _27  and  _29
REMARK   12  A    between atoms: _29  and  _30
REMARK   13  A    between atoms: _29  and  _32
REMARK   14  A    between atoms: _32  and  _33
REMARK   15  A    between atoms: _36  and  _38
REMARK   16  A    between atoms: _38  and  _39
REMARK   17  A    between atoms: _38  and  _41
REMARK   18  A    between atoms: _41  and  _42
REMARK   19  A    between atoms: _45  and  _47
REMARK   20  A    between atoms: _47  and  _48
REMARK   21  A    between atoms: _47  and  _50
REMARK   22  A    between atoms: _50  and  _51
REMARK   23  A    between atoms: _54  and  _56
REMARK   24  A    between atoms: _56  and  _57
REMARK   25  A    between atoms: _59  and  _61
REMARK   26  A    between atoms: _61  and  _62
REMARK   27  A    between atoms: _65  and  _67
REMARK   28  A    between atoms: _67  and  _68
REMARK   29  A    between atoms: _67  and  _70
REMARK   30  A    between atoms: _70  and  _71
REMARK   31  A    between atoms: _74  and  _76
REMARK   32  A    between atoms: _76  and  _77
REMARK   33  A    between atoms: _76  and  _79
REMARK   34  A    between atoms: _79  and  _80
REMARK   35  A    between atoms: _83  and  _85
REMARK   36  A    between atoms: _85  and  _86
REMARK   37  A    between atoms: _85  and  _88
REMARK   38  A    between atoms: _88  and  _89
REMARK   39  A    between atoms: _92  and  _94
REMARK   40  A    between atoms: _94  and  _95
REMARK   41  A    between atoms: _94  and  _97
REMARK   42  A    between atoms: _100  and  _102
REMARK   43  A    between atoms: _102  and  _103
REMARK   44  A    between atoms: _102  and  _105
REMARK   45  A    between atoms: _105  and  _106
REMARK   46  A    between atoms: _106  and  _107
REMARK   47  A    between atoms: _107  and  _108
REMARK   48  A    between atoms: _108  and  _109
REMARK   49  A    between atoms: _113  and  _115
REMARK   50  A    between atoms: _115  and  _116
REMARK   51  A    between atoms: _115  and  _118
REMARK   52  A    between atoms: _118  and  _119
REMARK   53  A    between atoms: _119  and  _120
REMARK   54  A    between atoms: _122  and  _124
REMARK   55  A    between atoms: _124  and  _125
REMARK   56  A    between atoms: _124  and  _127
REMARK   57  A    between atoms: _127  and  _128
REMARK   58  A    between atoms: _131  and  _133
REMARK   59  A    between atoms: _133  and  _134
REMARK   60  A    between atoms: _136  and  _138
REMARK   61  A    between atoms: _138  and  _139
REMARK   62  A    between atoms: _141  and  _143
REMARK   63  A    between atoms: _143  and  _144
REMARK   64  A    between atoms: _143  and  _146
REMARK   65  A    between atoms: _146  and  _147
REMARK   66  A    between atoms: _150  and  _152
REMARK   67  A    between atoms: _152  and  _153
REMARK   68  A    between atoms: _155  and  _157
REMARK   69  A    between atoms: _157  and  _158
REMARK   70  A    between atoms: _160  and  _162
REMARK   71  A    between atoms: _162  and  _163
REMARK   72  A    between atoms: _162  and  _165
REMARK   73  A    between atoms: _165  and  _166
REMARK   74  A    between atoms: _172  and  _174
REMARK   75  A    between atoms: _174  and  _175
REMARK   76  A    between atoms: _174  and  _177
REMARK   77  A    between atoms: _177  and  _178
REMARK   78  A    between atoms: _181  and  _183
REMARK   79  A    between atoms: _183  and  _184
REMARK   80  A    between atoms: _183  and  _186
REMARK   81  A    between atoms: _189  and  _191
REMARK   82  A    between atoms: _191  and  _192
REMARK   83  A    between atoms: _191  and  _194
REMARK   84  A    between atoms: _194  and  _195
REMARK   85  A    between atoms: _198  and  _200
REMARK   86  A    between atoms: _200  and  _201
REMARK   87  A    between atoms: _200  and  _203
REMARK   88  A    between atoms: _203  and  _204
REMARK   89  A    between atoms: _208  and  _209
REMARK   90  A    between atoms: _214  and  _216
REMARK   91  A    between atoms: _216  and  _217
REMARK   92  A    between atoms: _216  and  _219
REMARK   93  A    between atoms: _222  and  _224
REMARK   94  A    between atoms: _224  and  _225
REMARK   95  A    between atoms: _224  and  _227
REMARK   96  A    between atoms: _227  and  _228
REMARK   97  A    between atoms: _233  and  _235
REMARK   98  A    between atoms: _235  and  _236
REMARK   99  A    between atoms: _235  and  _238
REMARK  100  A    between atoms: _238  and  _239
REMARK  101  A    between atoms: _242  and  _244
REMARK  102  A    between atoms: _244  and  _245
REMARK  103  A    between atoms: _244  and  _247
REMARK  104  A    between atoms: _247  and  _248
REMARK  105  A    between atoms: _251  and  _253
REMARK  106  A    between atoms: _253  and  _254
REMARK  107  A    between atoms: _256  and  _258
REMARK  108  A    between atoms: _258  and  _259
REMARK  109  A    between atoms: _258  and  _261
REMARK  110  A    between atoms: _261  and  _262
REMARK  111  A    between atoms: _262  and  _263
REMARK  112  A    between atoms: _263  and  _264
REMARK  113  A    between atoms: _273  and  _275
REMARK  114  A    between atoms: _275  and  _276
REMARK  115  A    between atoms: _275  and  _278
REMARK  116  A    between atoms: _278  and  _279
REMARK  117  A    between atoms: _284  and  _286
REMARK  118  A    between atoms: _286  and  _287
REMARK  119  A    between atoms: _286  and  _289
REMARK  120  A    between atoms: _289  and  _290
REMARK  121  A    between atoms: _290  and  _291
REMARK  122  A    between atoms: _291  and  _292
REMARK  123  A    between atoms: _301  and  _303
REMARK  124  A    between atoms: _303  and  _304
REMARK  125  A    between atoms: _303  and  _306
REMARK  126  A    between atoms: _306  and  _307
REMARK  127  A    between atoms: _310  and  _312
REMARK  128  A    between atoms: _312  and  _313
REMARK  129  A    between atoms: _312  and  _315
REMARK  130  A    between atoms: _315  and  _316
REMARK  131  A    between atoms: _319  and  _321
REMARK  132  A    between atoms: _321  and  _322
REMARK  133  A    between atoms: _321  and  _324
REMARK  134  A    between atoms: _324  and  _325
REMARK  135  A    between atoms: _328  and  _330
REMARK  136  A    between atoms: _330  and  _331
REMARK  137  A    between atoms: _330  and  _333
REMARK  138  A    between atoms: _333  and  _334
REMARK  139  A    between atoms: _337  and  _339
REMARK  140  A    between atoms: _339  and  _340
REMARK  141  A    between atoms: _342  and  _344
REMARK  142  A    between atoms: _344  and  _345
REMARK  143  A    between atoms: _348  and  _350
REMARK  144  A    between atoms: _350  and  _351
REMARK  145  A    between atoms: _350  and  _353
REMARK  146  A    between atoms: _353  and  _354
REMARK  147  A    between atoms: _357  and  _359
REMARK  148  A    between atoms: _359  and  _360
REMARK  149  A    between atoms: _359  and  _362
REMARK  150  A    between atoms: _362  and  _363
REMARK  151  A    between atoms: _366  and  _368
REMARK  152  A    between atoms: _368  and  _369
REMARK  153  A    between atoms: _368  and  _371
REMARK  154  A    between atoms: _371  and  _372
REMARK  155  A    between atoms: _375  and  _377
REMARK  156  A    between atoms: _377  and  _378
REMARK  157  A    between atoms: _377  and  _380
REMARK  158  A    between atoms: _383  and  _385
REMARK  159  A    between atoms: _385  and  _386
REMARK  160  A    between atoms: _385  and  _388
REMARK  161  A    between atoms: _388  and  _389
REMARK  162  A    between atoms: _392  and  _394
REMARK  163  A    between atoms: _394  and  _395
REMARK  164  A    between atoms: _394  and  _397
REMARK  165  A    between atoms: _397  and  _398
REMARK  166  A    between atoms: _398  and  _399
REMARK  167  A    between atoms: _399  and  _400
REMARK  168  A    between atoms: _400  and  _401
REMARK  169  A    between atoms: _405  and  _407
REMARK  170  A    between atoms: _407  and  _408
REMARK  171  A    between atoms: _407  and  _410
REMARK  172  A    between atoms: _410  and  _411
REMARK  173  A    between atoms: _414  and  _416
REMARK  174  A    between atoms: _416  and  _417
REMARK  175  A    between atoms: _419  and  _421
REMARK  176  A    between atoms: _421  and  _422
REMARK  177  A    between atoms: _424  and  _426
REMARK  178  A    between atoms: _426  and  _427
REMARK  179  A    between atoms: _426  and  _429
REMARK  180  A    between atoms: _429  and  _430
REMARK  181  A    between atoms: _433  and  _435
REMARK  182  A    between atoms: _435  and  _436
REMARK  183  A    between atoms: _438  and  _440
REMARK  184  A    between atoms: _440  and  _441
REMARK  185  A    between atoms: _443  and  _445
REMARK  186  A    between atoms: _445  and  _446
REMARK  187  A    between atoms: _445  and  _448
REMARK  188  A    between atoms: _448  and  _449
REMARK  189  A    between atoms: _455  and  _457
REMARK  190  A    between atoms: _457  and  _458
REMARK  191  A    between atoms: _457  and  _460
REMARK  192  A    between atoms: _460  and  _461
REMARK  193  A    between atoms: _464  and  _466
REMARK  194  A    between atoms: _466  and  _467
REMARK  195  A    between atoms: _466  and  _469
REMARK  196  A    between atoms: _472  and  _474
REMARK  197  A    between atoms: _474  and  _475
REMARK  198  A    between atoms: _474  and  _477
REMARK  199  A    between atoms: _477  and  _478
REMARK  200  A    between atoms: _482  and  _483
REMARK  201  A    between atoms: _488  and  _490
REMARK  202  A    between atoms: _490  and  _491
REMARK  203  A    between atoms: _490  and  _493
REMARK  204  A    between atoms: _493  and  _494
REMARK  205  A    between atoms: _498  and  _499
REMARK  206  A    between atoms: _504  and  _506
REMARK  207  A    between atoms: _506  and  _507
REMARK  208  A    between atoms: _506  and  _509
REMARK  209  A    between atoms: _512  and  _514
REMARK  210  A    between atoms: _514  and  _515
REMARK  211  A    between atoms: _514  and  _517
REMARK  212  A    between atoms: _517  and  _518
REMARK  213  A    between atoms: _523  and  _525
REMARK  214  A    between atoms: _525  and  _526
REMARK  215  A    between atoms: _525  and  _528
REMARK  216  A    between atoms: _528  and  _529
REMARK  217  A    between atoms: _532  and  _534
REMARK  218  A    between atoms: _534  and  _535
REMARK  219  A    between atoms: _534  and  _537
REMARK  220  A    between atoms: _537  and  _538
REMARK  221  A    between atoms: _541  and  _543
REMARK  222  A    between atoms: _543  and  _544
REMARK  223  A    between atoms: _546  and  _548
REMARK  224  A    between atoms: _548  and  _549
REMARK  225  A    between atoms: _548  and  _551
REMARK  226  A    between atoms: _551  and  _552
REMARK  227  A    between atoms: _552  and  _553
REMARK  228  A    between atoms: _553  and  _554
REMARK  229  A    between atoms: _563  and  _565
REMARK  230  A    between atoms: _565  and  _566
REMARK  231  A    between atoms: _565  and  _568
REMARK  232  A    between atoms: _568  and  _569
REMARK                            x       y       z     vdW  Elec       q    Type
REMARK                         _______ _______ _______ _____ _____    ______ ____
ROOT
ATOM      1  O   HOH     1     -16.652  19.003   4.647  0.00  0.00    +0.000 OA
ENDROOT
TORSDOF 0
REMARK  Name = ../refined-set-2016/1m0b/1m0b_pocket.pdb
REMARK  232 active torsions:
REMARK  status: ('A' for Active; 'I' for Inactive)
REMARK    1  A    between atoms: _1  and  _3
REMARK    2  A    between atoms: _3  and  _4
REMARK    3  A    between atoms: _3  and  _6
REMARK    4  A    between atoms: _6  and  _7
REMARK    5  A    between atoms: _7  and  _8
REMARK    6  A    between atoms: _8  and  _9
REMARK    7  A    between atoms: _18  and  _20
REMARK    8  A    between atoms: _20  and  _21
REMARK    9  A    between atoms: _20  and  _23
REMARK   10  A    between atoms: _23  and  _24
REMARK   11  A    between atoms: _27  and  _29
REMARK   12  A    between atoms: _29  and  _30
REMARK   13  A    between atoms: _29  and  _32
REMARK   14  A    between atoms: _32  and  _33
REMARK   15  A    between atoms: _36  and  _38
REMARK   16  A    between atoms: _38  and  _39
REMARK   17  A    between atoms: _38  and  _41
REMARK   18  A    between atoms: _41  and  _42
REMARK   19  A    between atoms: _45  and  _47
REMARK   20  A    between atoms: _47  and  _48
REMARK   21  A    between atoms: _47  and  _50
REMARK   22  A    between atoms: _50  and  _51
REMARK   23  A    between atoms: _54  and  _56
REMARK   24  A    between atoms: _56  and  _57
REMARK   25  A    between atoms: _59  and  _61
REMARK   26  A    between atoms: _61  and  _62
REMARK   27  A    between atoms: _65  and  _67
REMARK   28  A    between atoms: _67  and  _68
REMARK   29  A    between atoms: _67  and  _70
REMARK   30  A    between atoms: _70  and  _71
REMARK   31  A    between atoms: _74  and  _76
REMARK   32  A    between atoms: _76  and  _77
REMARK   33  A    between atoms: _76  and  _79
REMARK   34  A    between atoms: _79  and  _80
REMARK   35  A    between atoms: _83  and  _85
REMARK   36  A    between atoms: _85  and  _86
REMARK   37  A    between atoms: _85  and  _88
REMARK   38  A    between atoms: _88  and  _89
REMARK   39  A    between atoms: _92  and  _94
REMARK   40  A    between atoms: _94  and  _95
REMARK   41  A    between atoms: _94  and  _97
REMARK   42  A    between atoms: _100  and  _102
REMARK   43  A    between atoms: _102  and  _103
REMARK   44  A    between atoms: _102  and  _105
REMARK   45  A    between atoms: _105  and  _106
REMARK   46  A    between atoms: _106  and  _107
REMARK   47  A    between atoms: _107  and  _108
REMARK   48  A    between atoms: _108  and  _109
REMARK   49  A    between atoms: _113  and  _115
REMARK   50  A    between atoms: _115  and  _116
REMARK   51  A    between atoms: _115  and  _118
REMARK   52  A    between atoms: _118  and  _119
REMARK   53  A    between atoms: _119  and  _120
REMARK   54  A    between atoms: _122  and  _124
REMARK   55  A    between atoms: _124  and  _125
REMARK   56  A    between atoms: _124  and  _127
REMARK   57  A    between atoms: _127  and  _128
REMARK   58  A    between atoms: _131  and  _133
REMARK   59  A    between atoms: _133  and  _134
REMARK   60  A    between atoms: _136  and  _138
REMARK   61  A    between atoms: _138  and  _139
REMARK   62  A    between atoms: _141  and  _143
REMARK   63  A    between atoms: _143  and  _144
REMARK   64  A    between atoms: _143  and  _146
REMARK   65  A    between atoms: _146  and  _147
REMARK   66  A    between atoms: _150  and  _152
REMARK   67  A    between atoms: _152  and  _153
REMARK   68  A    between atoms: _155  and  _157
REMARK   69  A    between atoms: _157  and  _158
REMARK   70  A    between atoms: _160  and  _162
REMARK   71  A    between atoms: _162  and  _163
REMARK   72  A    between atoms: _162  and  _165
REMARK   73  A    between atoms: _165  and  _166
REMARK   74  A    between atoms: _172  and  _174
REMARK   75  A    between atoms: _174  and  _175
REMARK   76  A    between atoms: _174  and  _177
REMARK   77  A    between atoms: _177  and  _178
REMARK   78  A    between atoms: _181  and  _183
REMARK   79  A    between atoms: _183  and  _184
REMARK   80  A    between atoms: _183  and  _186
REMARK   81  A    between atoms: _189  and  _191
REMARK   82  A    between atoms: _191  and  _192
REMARK   83  A    between atoms: _191  and  _194
REMARK   84  A    between atoms: _194  and  _195
REMARK   85  A    between atoms: _198  and  _200
REMARK   86  A    between atoms: _200  and  _201
REMARK   87  A    between atoms: _200  and  _203
REMARK   88  A    between atoms: _203  and  _204
REMARK   89  A    between atoms: _208  and  _209
REMARK   90  A    between atoms: _214  and  _216
REMARK   91  A    between atoms: _216  and  _217
REMARK   92  A    between atoms: _216  and  _219
REMARK   93  A    between atoms: _222  and  _224
REMARK   94  A    between atoms: _224  and  _225
REMARK   95  A    between atoms: _224  and  _227
REMARK   96  A    between atoms: _227  and  _228
REMARK   97  A    between atoms: _233  and  _235
REMARK   98  A    between atoms: _235  and  _236
REMARK   99  A    between atoms: _235  and  _238
REMARK  100  A    between atoms: _238  and  _239
REMARK  101  A    between atoms: _242  and  _244
REMARK  102  A    between atoms: _244  and  _245
REMARK  103  A    between atoms: _244  and  _247
REMARK  104  A    between atoms: _247  and  _248
REMARK  105  A    between atoms: _251  and  _253
REMARK  106  A    between atoms: _253  and  _254
REMARK  107  A    between atoms: _256  and  _258
REMARK  108  A    between atoms: _258  and  _259
REMARK  109  A    between atoms: _258  and  _261
REMARK  110  A    between atoms: _261  and  _262
REMARK  111  A    between atoms: _262  and  _263
REMARK  112  A    between atoms: _263  and  _264
REMARK  113  A    between atoms: _273  and  _275
REMARK  114  A    between atoms: _275  and  _276
REMARK  115  A    between atoms: _275  and  _278
REMARK  116  A    between atoms: _278  and  _279
REMARK  117  A    between atoms: _284  and  _286
REMARK  118  A    between atoms: _286  and  _287
REMARK  119  A    between atoms: _286  and  _289
REMARK  120  A    between atoms: _289  and  _290
REMARK  121  A    between atoms: _290  and  _291
REMARK  122  A    between atoms: _291  and  _292
REMARK  123  A    between atoms: _301  and  _303
REMARK  124  A    between atoms: _303  and  _304
REMARK  125  A    between atoms: _303  and  _306
REMARK  126  A    between atoms: _306  and  _307
REMARK  127  A    between atoms: _310  and  _312
REMARK  128  A    between atoms: _312  and  _313
REMARK  129  A    between atoms: _312  and  _315
REMARK  130  A    between atoms: _315  and  _316
REMARK  131  A    between atoms: _319  and  _321
REMARK  132  A    between atoms: _321  and  _322
REMARK  133  A    between atoms: _321  and  _324
REMARK  134  A    between atoms: _324  and  _325
REMARK  135  A    between atoms: _328  and  _330
REMARK  136  A    between atoms: _330  and  _331
REMARK  137  A    between atoms: _330  and  _333
REMARK  138  A    between atoms: _333  and  _334
REMARK  139  A    between atoms: _337  and  _339
REMARK  140  A    between atoms: _339  and  _340
REMARK  141  A    between atoms: _342  and  _344
REMARK  142  A    between atoms: _344  and  _345
REMARK  143  A    between atoms: _348  and  _350
REMARK  144  A    between atoms: _350  and  _351
REMARK  145  A    between atoms: _350  and  _353
REMARK  146  A    between atoms: _353  and  _354
REMARK  147  A    between atoms: _357  and  _359
REMARK  148  A    between atoms: _359  and  _360
REMARK  149  A    between atoms: _359  and  _362
REMARK  150  A    between atoms: _362  and  _363
REMARK  151  A    between atoms: _366  and  _368
REMARK  152  A    between atoms: _368  and  _369
REMARK  153  A    between atoms: _368  and  _371
REMARK  154  A    between atoms: _371  and  _372
REMARK  155  A    between atoms: _375  and  _377
REMARK  156  A    between atoms: _377  and  _378
REMARK  157  A    between atoms: _377  and  _380
REMARK  158  A    between atoms: _383  and  _385
REMARK  159  A    between atoms: _385  and  _386
REMARK  160  A    between atoms: _385  and  _388
REMARK  161  A    between atoms: _388  and  _389
REMARK  162  A    between atoms: _392  and  _394
REMARK  163  A    between atoms: _394  and  _395
REMARK  164  A    between atoms: _394  and  _397
REMARK  165  A    between atoms: _397  and  _398
REMARK  166  A    between atoms: _398  and  _399
REMARK  167  A    between atoms: _399  and  _400
REMARK  168  A    between atoms: _400  and  _401
REMARK  169  A    between atoms: _405  and  _407
REMARK  170  A    between atoms: _407  and  _408
REMARK  171  A    between atoms: _407  and  _410
REMARK  172  A    between atoms: _410  and  _411
REMARK  173  A    between atoms: _414  and  _416
REMARK  174  A    between atoms: _416  and  _417
REMARK  175  A    between atoms: _419  and  _421
REMARK  176  A    between atoms: _421  and  _422
REMARK  177  A    between atoms: _424  and  _426
REMARK  178  A    between atoms: _426  and  _427
REMARK  179  A    between atoms: _426  and  _429
REMARK  180  A    between atoms: _429  and  _430
REMARK  181  A    between atoms: _433  and  _435
REMARK  182  A    between atoms: _435  and  _436
REMARK  183  A    between atoms: _438  and  _440
REMARK  184  A    between atoms: _440  and  _441
REMARK  185  A    between atoms: _443  and  _445
REMARK  186  A    between atoms: _445  and  _446
REMARK  187  A    between atoms: _445  and  _448
REMARK  188  A    between atoms: _448  and  _449
REMARK  189  A    between atoms: _455  and  _457
REMARK  190  A    between atoms: _457  and  _458
REMARK  191  A    between atoms: _457  and  _460
REMARK  192  A    between atoms: _460  and  _461
REMARK  193  A    between atoms: _464  and  _466
REMARK  194  A    between atoms: _466  and  _467
REMARK  195  A    between atoms: _466  and  _469
REMARK  196  A    between atoms: _472  and  _474
REMARK  197  A    between atoms: _474  and  _475
REMARK  198  A    between atoms: _474  and  _477
REMARK  199  A    between atoms: _477  and  _478
REMARK  200  A    between atoms: _482  and  _483
REMARK  201  A    between atoms: _488  and  _490
REMARK  202  A    between atoms: _490  and  _491
REMARK  203  A    between atoms: _490  and  _493
REMARK  204  A    between atoms: _493  and  _494
REMARK  205  A    between atoms: _498  and  _499
REMARK  206  A    between atoms: _504  and  _506
REMARK  207  A    between atoms: _506  and  _507
REMARK  208  A    between atoms: _506  and  _509
REMARK  209  A    between atoms: _512  and  _514
REMARK  210  A    between atoms: _514  and  _515
REMARK  211  A    between atoms: _514  and  _517
REMARK  212  A    between atoms: _517  and  _518
REMARK  213  A    between atoms: _523  and  _525
REMARK  214  A    between atoms: _525  and  _526
REMARK  215  A    between atoms: _525  and  _528
REMARK  216  A    between atoms: _528  and  _529
REMARK  217  A    between atoms: _532  and  _534
REMARK  218  A    between atoms: _534  and  _535
REMARK  219  A    between atoms: _534  and  _537
REMARK  220  A    between atoms: _537  and  _538
REMARK  221  A    between atoms: _541  and  _543
REMARK  222  A    between atoms: _543  and  _544
REMARK  223  A    between atoms: _546  and  _548
REMARK  224  A    between atoms: _548  and  _549
REMARK  225  A    between atoms: _548  and  _551
REMARK  226  A    between atoms: _551  and  _552
REMARK  227  A    between atoms: _552  and  _553
REMARK  228  A    between atoms: _553  and  _554
REMARK  229  A    between atoms: _563  and  _565
REMARK  230  A    between atoms: _565  and  _566
REMARK  231  A    between atoms: _565  and  _568
REMARK  232  A    between atoms: _568  and  _569
REMARK                            x       y       z     vdW  Elec       q    Type
REMARK                         _______ _______ _______ _____ _____    ______ ____
ROOT
ATOM      1  O   HOH     1      -8.599  19.178  12.796  0.00  0.00    +0.000 OA
ENDROOT
TORSDOF 0
REMARK  Name = ../refined-set-2016/1m0b/1m0b_pocket.pdb
REMARK  232 active torsions:
REMARK  status: ('A' for Active; 'I' for Inactive)
REMARK    1  A    between atoms: _1  and  _3
REMARK    2  A    between atoms: _3  and  _4
REMARK    3  A    between atoms: _3  and  _6
REMARK    4  A    between atoms: _6  and  _7
REMARK    5  A    between atoms: _7  and  _8
REMARK    6  A    between atoms: _8  and  _9
REMARK    7  A    between atoms: _18  and  _20
REMARK    8  A    between atoms: _20  and  _21
REMARK    9  A    between atoms: _20  and  _23
REMARK   10  A    between atoms: _23  and  _24
REMARK   11  A    between atoms: _27  and  _29
REMARK   12  A    between atoms: _29  and  _30
REMARK   13  A    between atoms: _29  and  _32
REMARK   14  A    between atoms: _32  and  _33
REMARK   15  A    between atoms: _36  and  _38
REMARK   16  A    between atoms: _38  and  _39
REMARK   17  A    between atoms: _38  and  _41
REMARK   18  A    between atoms: _41  and  _42
REMARK   19  A    between atoms: _45  and  _47
REMARK   20  A    between atoms: _47  and  _48
REMARK   21  A    between atoms: _47  and  _50
REMARK   22  A    between atoms: _50  and  _51
REMARK   23  A    between atoms: _54  and  _56
REMARK   24  A    between atoms: _56  and  _57
REMARK   25  A    between atoms: _59  and  _61
REMARK   26  A    between atoms: _61  and  _62
REMARK   27  A    between atoms: _65  and  _67
REMARK   28  A    between atoms: _67  and  _68
REMARK   29  A    between atoms: _67  and  _70
REMARK   30  A    between atoms: _70  and  _71
REMARK   31  A    between atoms: _74  and  _76
REMARK   32  A    between atoms: _76  and  _77
REMARK   33  A    between atoms: _76  and  _79
REMARK   34  A    between atoms: _79  and  _80
REMARK   35  A    between atoms: _83  and  _85
REMARK   36  A    between atoms: _85  and  _86
REMARK   37  A    between atoms: _85  and  _88
REMARK   38  A    between atoms: _88  and  _89
REMARK   39  A    between atoms: _92  and  _94
REMARK   40  A    between atoms: _94  and  _95
REMARK   41  A    between atoms: _94  and  _97
REMARK   42  A    between atoms: _100  and  _102
REMARK   43  A    between atoms: _102  and  _103
REMARK   44  A    between atoms: _102  and  _105
REMARK   45  A    between atoms: _105  and  _106
REMARK   46  A    between atoms: _106  and  _107
REMARK   47  A    between atoms: _107  and  _108
REMARK   48  A    between atoms: _108  and  _109
REMARK   49  A    between atoms: _113  and  _115
REMARK   50  A    between atoms: _115  and  _116
REMARK   51  A    between atoms: _115  and  _118
REMARK   52  A    between atoms: _118  and  _119
REMARK   53  A    between atoms: _119  and  _120
REMARK   54  A    between atoms: _122  and  _124
REMARK   55  A    between atoms: _124  and  _125
REMARK   56  A    between atoms: _124  and  _127
REMARK   57  A    between atoms: _127  and  _128
REMARK   58  A    between atoms: _131  and  _133
REMARK   59  A    between atoms: _133  and  _134
REMARK   60  A    between atoms: _136  and  _138
REMARK   61  A    between atoms: _138  and  _139
REMARK   62  A    between atoms: _141  and  _143
REMARK   63  A    between atoms: _143  and  _144
REMARK   64  A    between atoms: _143  and  _146
REMARK   65  A    between atoms: _146  and  _147
REMARK   66  A    between atoms: _150  and  _152
REMARK   67  A    between atoms: _152  and  _153
REMARK   68  A    between atoms: _155  and  _157
REMARK   69  A    between atoms: _157  and  _158
REMARK   70  A    between atoms: _160  and  _162
REMARK   71  A    between atoms: _162  and  _163
REMARK   72  A    between atoms: _162  and  _165
REMARK   73  A    between atoms: _165  and  _166
REMARK   74  A    between atoms: _172  and  _174
REMARK   75  A    between atoms: _174  and  _175
REMARK   76  A    between atoms: _174  and  _177
REMARK   77  A    between atoms: _177  and  _178
REMARK   78  A    between atoms: _181  and  _183
REMARK   79  A    between atoms: _183  and  _184
REMARK   80  A    between atoms: _183  and  _186
REMARK   81  A    between atoms: _189  and  _191
REMARK   82  A    between atoms: _191  and  _192
REMARK   83  A    between atoms: _191  and  _194
REMARK   84  A    between atoms: _194  and  _195
REMARK   85  A    between atoms: _198  and  _200
REMARK   86  A    between atoms: _200  and  _201
REMARK   87  A    between atoms: _200  and  _203
REMARK   88  A    between atoms: _203  and  _204
REMARK   89  A    between atoms: _208  and  _209
REMARK   90  A    between atoms: _214  and  _216
REMARK   91  A    between atoms: _216  and  _217
REMARK   92  A    between atoms: _216  and  _219
REMARK   93  A    between atoms: _222  and  _224
REMARK   94  A    between atoms: _224  and  _225
REMARK   95  A    between atoms: _224  and  _227
REMARK   96  A    between atoms: _227  and  _228
REMARK   97  A    between atoms: _233  and  _235
REMARK   98  A    between atoms: _235  and  _236
REMARK   99  A    between atoms: _235  and  _238
REMARK  100  A    between atoms: _238  and  _239
REMARK  101  A    between atoms: _242  and  _244
REMARK  102  A    between atoms: _244  and  _245
REMARK  103  A    between atoms: _244  and  _247
REMARK  104  A    between atoms: _247  and  _248
REMARK  105  A    between atoms: _251  and  _253
REMARK  106  A    between atoms: _253  and  _254
REMARK  107  A    between atoms: _256  and  _258
REMARK  108  A    between atoms: _258  and  _259
REMARK  109  A    between atoms: _258  and  _261
REMARK  110  A    between atoms: _261  and  _262
REMARK  111  A    between atoms: _262  and  _263
REMARK  112  A    between atoms: _263  and  _264
REMARK  113  A    between atoms: _273  and  _275
REMARK  114  A    between atoms: _275  and  _276
REMARK  115  A    between atoms: _275  and  _278
REMARK  116  A    between atoms: _278  and  _279
REMARK  117  A    between atoms: _284  and  _286
REMARK  118  A    between atoms: _286  and  _287
REMARK  119  A    between atoms: _286  and  _289
REMARK  120  A    between atoms: _289  and  _290
REMARK  121  A    between atoms: _290  and  _291
REMARK  122  A    between atoms: _291  and  _292
REMARK  123  A    between atoms: _301  and  _303
REMARK  124  A    between atoms: _303  and  _304
REMARK  125  A    between atoms: _303  and  _306
REMARK  126  A    between atoms: _306  and  _307
REMARK  127  A    between atoms: _310  and  _312
REMARK  128  A    between atoms: _312  and  _313
REMARK  129  A    between atoms: _312  and  _315
REMARK  130  A    between atoms: _315  and  _316
REMARK  131  A    between atoms: _319  and  _321
REMARK  132  A    between atoms: _321  and  _322
REMARK  133  A    between atoms: _321  and  _324
REMARK  134  A    between atoms: _324  and  _325
REMARK  135  A    between atoms: _328  and  _330
REMARK  136  A    between atoms: _330  and  _331
REMARK  137  A    between atoms: _330  and  _333
REMARK  138  A    between atoms: _333  and  _334
REMARK  139  A    between atoms: _337  and  _339
REMARK  140  A    between atoms: _339  and  _340
REMARK  141  A    between atoms: _342  and  _344
REMARK  142  A    between atoms: _344  and  _345
REMARK  143  A    between atoms: _348  and  _350
REMARK  144  A    between atoms: _350  and  _351
REMARK  145  A    between atoms: _350  and  _353
REMARK  146  A    between atoms: _353  and  _354
REMARK  147  A    between atoms: _357  and  _359
REMARK  148  A    between atoms: _359  and  _360
REMARK  149  A    between atoms: _359  and  _362
REMARK  150  A    between atoms: _362  and  _363
REMARK  151  A    between atoms: _366  and  _368
REMARK  152  A    between atoms: _368  and  _369
REMARK  153  A    between atoms: _368  and  _371
REMARK  154  A    between atoms: _371  and  _372
REMARK  155  A    between atoms: _375  and  _377
REMARK  156  A    between atoms: _377  and  _378
REMARK  157  A    between atoms: _377  and  _380
REMARK  158  A    between atoms: _383  and  _385
REMARK  159  A    between atoms: _385  and  _386
REMARK  160  A    between atoms: _385  and  _388
REMARK  161  A    between atoms: _388  and  _389
REMARK  162  A    between atoms: _392  and  _394
REMARK  163  A    between atoms: _394  and  _395
REMARK  164  A    between atoms: _394  and  _397
REMARK  165  A    between atoms: _397  and  _398
REMARK  166  A    between atoms: _398  and  _399
REMARK  167  A    between atoms: _399  and  _400
REMARK  168  A    between atoms: _400  and  _401
REMARK  169  A    between atoms: _405  and  _407
REMARK  170  A    between atoms: _407  and  _408
REMARK  171  A    between atoms: _407  and  _410
REMARK  172  A    between atoms: _410  and  _411
REMARK  173  A    between atoms: _414  and  _416
REMARK  174  A    between atoms: _416  and  _417
REMARK  175  A    between atoms: _419  and  _421
REMARK  176  A    between atoms: _421  and  _422
REMARK  177  A    between atoms: _424  and  _426
REMARK  178  A    between atoms: _426  and  _427
REMARK  179  A    between atoms: _426  and  _429
REMARK  180  A    between atoms: _429  and  _430
REMARK  181  A    between atoms: _433  and  _435
REMARK  182  A    between atoms: _435  and  _436
REMARK  183  A    between atoms: _438  and  _440
REMARK  184  A    between atoms: _440  and  _441
REMARK  185  A    between atoms: _443  and  _445
REMARK  186  A    between atoms: _445  and  _446
REMARK  187  A    between atoms: _445  and  _448
REMARK  188  A    between atoms: _448  and  _449
REMARK  189  A    between atoms: _455  and  _457
REMARK  190  A    between atoms: _457  and  _458
REMARK  191  A    between atoms: _457  and  _460
REMARK  192  A    between atoms: _460  and  _461
REMARK  193  A    between atoms: _464  and  _466
REMARK  194  A    between atoms: _466  and  _467
REMARK  195  A    between atoms: _466  and  _469
REMARK  196  A    between atoms: _472  and  _474
REMARK  197  A    between atoms: _474  and  _475
REMARK  198  A    between atoms: _474  and  _477
REMARK  199  A    between atoms: _477  and  _478
REMARK  200  A    between atoms: _482  and  _483
REMARK  201  A    between atoms: _488  and  _490
REMARK  202  A    between atoms: _490  and  _491
REMARK  203  A    between atoms: _490  and  _493
REMARK  204  A    between atoms: _493  and  _494
REMARK  205  A    between atoms: _498  and  _499
REMARK  206  A    between atoms: _504  and  _506
REMARK  207  A    between atoms: _506  and  _507
REMARK  208  A    between atoms: _506  and  _509
REMARK  209  A    between atoms: _512  and  _514
REMARK  210  A    between atoms: _514  and  _515
REMARK  211  A    between atoms: _514  and  _517
REMARK  212  A    between atoms: _517  and  _518
REMARK  213  A    between atoms: _523  and  _525
REMARK  214  A    between atoms: _525  and  _526
REMARK  215  A    between atoms: _525  and  _528
REMARK  216  A    between atoms: _528  and  _529
REMARK  217  A    between atoms: _532  and  _534
REMARK  218  A    between atoms: _534  and  _535
REMARK  219  A    between atoms: _534  and  _537
REMARK  220  A    between atoms: _537  and  _538
REMARK  221  A    between atoms: _541  and  _543
REMARK  222  A    between atoms: _543  and  _544
REMARK  223  A    between atoms: _546  and  _548
REMARK  224  A    between atoms: _548  and  _549
REMARK  225  A    between atoms: _548  and  _551
REMARK  226  A    between atoms: _551  and  _552
REMARK  227  A    between atoms: _552  and  _553
REMARK  228  A    between atoms: _553  and  _554
REMARK  229  A    between atoms: _563  and  _565
REMARK  230  A    between atoms: _565  and  _566
REMARK  231  A    between atoms: _565  and  _568
REMARK  232  A    between atoms: _568  and  _569
REMARK                            x       y       z     vdW  Elec       q    Type
REMARK                         _______ _______ _______ _____ _____    ______ ____
ROOT
ATOM      1  O   HOH     1     -11.297  12.536  12.049  0.00  0.00    +0.000 OA
ENDROOT
TORSDOF 0
REMARK  Name = ../refined-set-2016/1m0b/1m0b_pocket.pdb
REMARK  232 active torsions:
REMARK  status: ('A' for Active; 'I' for Inactive)
REMARK    1  A    between atoms: _1  and  _3
REMARK    2  A    between atoms: _3  and  _4
REMARK    3  A    between atoms: _3  and  _6
REMARK    4  A    between atoms: _6  and  _7
REMARK    5  A    between atoms: _7  and  _8
REMARK    6  A    between atoms: _8  and  _9
REMARK    7  A    between atoms: _18  and  _20
REMARK    8  A    between atoms: _20  and  _21
REMARK    9  A    between atoms: _20  and  _23
REMARK   10  A    between atoms: _23  and  _24
REMARK   11  A    between atoms: _27  and  _29
REMARK   12  A    between atoms: _29  and  _30
REMARK   13  A    between atoms: _29  and  _32
REMARK   14  A    between atoms: _32  and  _33
REMARK   15  A    between atoms: _36  and  _38
REMARK   16  A    between atoms: _38  and  _39
REMARK   17  A    between atoms: _38  and  _41
REMARK   18  A    between atoms: _41  and  _42
REMARK   19  A    between atoms: _45  and  _47
REMARK   20  A    between atoms: _47  and  _48
REMARK   21  A    between atoms: _47  and  _50
REMARK   22  A    between atoms: _50  and  _51
REMARK   23  A    between atoms: _54  and  _56
REMARK   24  A    between atoms: _56  and  _57
REMARK   25  A    between atoms: _59  and  _61
REMARK   26  A    between atoms: _61  and  _62
REMARK   27  A    between atoms: _65  and  _67
REMARK   28  A    between atoms: _67  and  _68
REMARK   29  A    between atoms: _67  and  _70
REMARK   30  A    between atoms: _70  and  _71
REMARK   31  A    between atoms: _74  and  _76
REMARK   32  A    between atoms: _76  and  _77
REMARK   33  A    between atoms: _76  and  _79
REMARK   34  A    between atoms: _79  and  _80
REMARK   35  A    between atoms: _83  and  _85
REMARK   36  A    between atoms: _85  and  _86
REMARK   37  A    between atoms: _85  and  _88
REMARK   38  A    between atoms: _88  and  _89
REMARK   39  A    between atoms: _92  and  _94
REMARK   40  A    between atoms: _94  and  _95
REMARK   41  A    between atoms: _94  and  _97
REMARK   42  A    between atoms: _100  and  _102
REMARK   43  A    between atoms: _102  and  _103
REMARK   44  A    between atoms: _102  and  _105
REMARK   45  A    between atoms: _105  and  _106
REMARK   46  A    between atoms: _106  and  _107
REMARK   47  A    between atoms: _107  and  _108
REMARK   48  A    between atoms: _108  and  _109
REMARK   49  A    between atoms: _113  and  _115
REMARK   50  A    between atoms: _115  and  _116
REMARK   51  A    between atoms: _115  and  _118
REMARK   52  A    between atoms: _118  and  _119
REMARK   53  A    between atoms: _119  and  _120
REMARK   54  A    between atoms: _122  and  _124
REMARK   55  A    between atoms: _124  and  _125
REMARK   56  A    between atoms: _124  and  _127
REMARK   57  A    between atoms: _127  and  _128
REMARK   58  A    between atoms: _131  and  _133
REMARK   59  A    between atoms: _133  and  _134
REMARK   60  A    between atoms: _136  and  _138
REMARK   61  A    between atoms: _138  and  _139
REMARK   62  A    between atoms: _141  and  _143
REMARK   63  A    between atoms: _143  and  _144
REMARK   64  A    between atoms: _143  and  _146
REMARK   65  A    between atoms: _146  and  _147
REMARK   66  A    between atoms: _150  and  _152
REMARK   67  A    between atoms: _152  and  _153
REMARK   68  A    between atoms: _155  and  _157
REMARK   69  A    between atoms: _157  and  _158
REMARK   70  A    between atoms: _160  and  _162
REMARK   71  A    between atoms: _162  and  _163
REMARK   72  A    between atoms: _162  and  _165
REMARK   73  A    between atoms: _165  and  _166
REMARK   74  A    between atoms: _172  and  _174
REMARK   75  A    between atoms: _174  and  _175
REMARK   76  A    between atoms: _174  and  _177
REMARK   77  A    between atoms: _177  and  _178
REMARK   78  A    between atoms: _181  and  _183
REMARK   79  A    between atoms: _183  and  _184
REMARK   80  A    between atoms: _183  and  _186
REMARK   81  A    between atoms: _189  and  _191
REMARK   82  A    between atoms: _191  and  _192
REMARK   83  A    between atoms: _191  and  _194
REMARK   84  A    between atoms: _194  and  _195
REMARK   85  A    between atoms: _198  and  _200
REMARK   86  A    between atoms: _200  and  _201
REMARK   87  A    between atoms: _200  and  _203
REMARK   88  A    between atoms: _203  and  _204
REMARK   89  A    between atoms: _208  and  _209
REMARK   90  A    between atoms: _214  and  _216
REMARK   91  A    between atoms: _216  and  _217
REMARK   92  A    between atoms: _216  and  _219
REMARK   93  A    between atoms: _222  and  _224
REMARK   94  A    between atoms: _224  and  _225
REMARK   95  A    between atoms: _224  and  _227
REMARK   96  A    between atoms: _227  and  _228
REMARK   97  A    between atoms: _233  and  _235
REMARK   98  A    between atoms: _235  and  _236
REMARK   99  A    between atoms: _235  and  _238
REMARK  100  A    between atoms: _238  and  _239
REMARK  101  A    between atoms: _242  and  _244
REMARK  102  A    between atoms: _244  and  _245
REMARK  103  A    between atoms: _244  and  _247
REMARK  104  A    between atoms: _247  and  _248
REMARK  105  A    between atoms: _251  and  _253
REMARK  106  A    between atoms: _253  and  _254
REMARK  107  A    between atoms: _256  and  _258
REMARK  108  A    between atoms: _258  and  _259
REMARK  109  A    between atoms: _258  and  _261
REMARK  110  A    between atoms: _261  and  _262
REMARK  111  A    between atoms: _262  and  _263
REMARK  112  A    between atoms: _263  and  _264
REMARK  113  A    between atoms: _273  and  _275
REMARK  114  A    between atoms: _275  and  _276
REMARK  115  A    between atoms: _275  and  _278
REMARK  116  A    between atoms: _278  and  _279
REMARK  117  A    between atoms: _284  and  _286
REMARK  118  A    between atoms: _286  and  _287
REMARK  119  A    between atoms: _286  and  _289
REMARK  120  A    between atoms: _289  and  _290
REMARK  121  A    between atoms: _290  and  _291
REMARK  122  A    between atoms: _291  and  _292
REMARK  123  A    between atoms: _301  and  _303
REMARK  124  A    between atoms: _303  and  _304
REMARK  125  A    between atoms: _303  and  _306
REMARK  126  A    between atoms: _306  and  _307
REMARK  127  A    between atoms: _310  and  _312
REMARK  128  A    between atoms: _312  and  _313
REMARK  129  A    between atoms: _312  and  _315
REMARK  130  A    between atoms: _315  and  _316
REMARK  131  A    between atoms: _319  and  _321
REMARK  132  A    between atoms: _321  and  _322
REMARK  133  A    between atoms: _321  and  _324
REMARK  134  A    between atoms: _324  and  _325
REMARK  135  A    between atoms: _328  and  _330
REMARK  136  A    between atoms: _330  and  _331
REMARK  137  A    between atoms: _330  and  _333
REMARK  138  A    between atoms: _333  and  _334
REMARK  139  A    between atoms: _337  and  _339
REMARK  140  A    between atoms: _339  and  _340
REMARK  141  A    between atoms: _342  and  _344
REMARK  142  A    between atoms: _344  and  _345
REMARK  143  A    between atoms: _348  and  _350
REMARK  144  A    between atoms: _350  and  _351
REMARK  145  A    between atoms: _350  and  _353
REMARK  146  A    between atoms: _353  and  _354
REMARK  147  A    between atoms: _357  and  _359
REMARK  148  A    between atoms: _359  and  _360
REMARK  149  A    between atoms: _359  and  _362
REMARK  150  A    between atoms: _362  and  _363
REMARK  151  A    between atoms: _366  and  _368
REMARK  152  A    between atoms: _368  and  _369
REMARK  153  A    between atoms: _368  and  _371
REMARK  154  A    between atoms: _371  and  _372
REMARK  155  A    between atoms: _375  and  _377
REMARK  156  A    between atoms: _377  and  _378
REMARK  157  A    between atoms: _377  and  _380
REMARK  158  A    between atoms: _383  and  _385
REMARK  159  A    between atoms: _385  and  _386
REMARK  160  A    between atoms: _385  and  _388
REMARK  161  A    between atoms: _388  and  _389
REMARK  162  A    between atoms: _392  and  _394
REMARK  163  A    between atoms: _394  and  _395
REMARK  164  A    between atoms: _394  and  _397
REMARK  165  A    between atoms: _397  and  _398
REMARK  166  A    between atoms: _398  and  _399
REMARK  167  A    between atoms: _399  and  _400
REMARK  168  A    between atoms: _400  and  _401
REMARK  169  A    between atoms: _405  and  _407
REMARK  170  A    between atoms: _407  and  _408
REMARK  171  A    between atoms: _407  and  _410
REMARK  172  A    between atoms: _410  and  _411
REMARK  173  A    between atoms: _414  and  _416
REMARK  174  A    between atoms: _416  and  _417
REMARK  175  A    between atoms: _419  and  _421
REMARK  176  A    between atoms: _421  and  _422
REMARK  177  A    between atoms: _424  and  _426
REMARK  178  A    between atoms: _426  and  _427
REMARK  179  A    between atoms: _426  and  _429
REMARK  180  A    between atoms: _429  and  _430
REMARK  181  A    between atoms: _433  and  _435
REMARK  182  A    between atoms: _435  and  _436
REMARK  183  A    between atoms: _438  and  _440
REMARK  184  A    between atoms: _440  and  _441
REMARK  185  A    between atoms: _443  and  _445
REMARK  186  A    between atoms: _445  and  _446
REMARK  187  A    between atoms: _445  and  _448
REMARK  188  A    between atoms: _448  and  _449
REMARK  189  A    between atoms: _455  and  _457
REMARK  190  A    between atoms: _457  and  _458
REMARK  191  A    between atoms: _457  and  _460
REMARK  192  A    between atoms: _460  and  _461
REMARK  193  A    between atoms: _464  and  _466
REMARK  194  A    between atoms: _466  and  _467
REMARK  195  A    between atoms: _466  and  _469
REMARK  196  A    between atoms: _472  and  _474
REMARK  197  A    between atoms: _474  and  _475
REMARK  198  A    between atoms: _474  and  _477
REMARK  199  A    between atoms: _477  and  _478
REMARK  200  A    between atoms: _482  and  _483
REMARK  201  A    between atoms: _488  and  _490
REMARK  202  A    between atoms: _490  and  _491
REMARK  203  A    between atoms: _490  and  _493
REMARK  204  A    between atoms: _493  and  _494
REMARK  205  A    between atoms: _498  and  _499
REMARK  206  A    between atoms: _504  and  _506
REMARK  207  A    between atoms: _506  and  _507
REMARK  208  A    between atoms: _506  and  _509
REMARK  209  A    between atoms: _512  and  _514
REMARK  210  A    between atoms: _514  and  _515
REMARK  211  A    between atoms: _514  and  _517
REMARK  212  A    between atoms: _517  and  _518
REMARK  213  A    between atoms: _523  and  _525
REMARK  214  A    between atoms: _525  and  _526
REMARK  215  A    between atoms: _525  and  _528
REMARK  216  A    between atoms: _528  and  _529
REMARK  217  A    between atoms: _532  and  _534
REMARK  218  A    between atoms: _534  and  _535
REMARK  219  A    between atoms: _534  and  _537
REMARK  220  A    between atoms: _537  and  _538
REMARK  221  A    between atoms: _541  and  _543
REMARK  222  A    between atoms: _543  and  _544
REMARK  223  A    between atoms: _546  and  _548
REMARK  224  A    between atoms: _548  and  _549
REMARK  225  A    between atoms: _548  and  _551
REMARK  226  A    between atoms: _551  and  _552
REMARK  227  A    between atoms: _552  and  _553
REMARK  228  A    between atoms: _553  and  _554
REMARK  229  A    between atoms: _563  and  _565
REMARK  230  A    between atoms: _565  and  _566
REMARK  231  A    between atoms: _565  and  _568
REMARK  232  A    between atoms: _568  and  _569
REMARK                            x       y       z     vdW  Elec       q    Type
REMARK                         _______ _______ _______ _____ _____    ______ ____
ROOT
ATOM      1  O   HOH     1     -15.708  19.511  11.400  0.00  0.00    +0.000 OA
ENDROOT
TORSDOF 0
REMARK  Name = ../refined-set-2016/1m0b/1m0b_pocket.pdb
REMARK  232 active torsions:
REMARK  status: ('A' for Active; 'I' for Inactive)
REMARK    1  A    between atoms: _1  and  _3
REMARK    2  A    between atoms: _3  and  _4
REMARK    3  A    between atoms: _3  and  _6
REMARK    4  A    between atoms: _6  and  _7
REMARK    5  A    between atoms: _7  and  _8
REMARK    6  A    between atoms: _8  and  _9
REMARK    7  A    between atoms: _18  and  _20
REMARK    8  A    between atoms: _20  and  _21
REMARK    9  A    between atoms: _20  and  _23
REMARK   10  A    between atoms: _23  and  _24
REMARK   11  A    between atoms: _27  and  _29
REMARK   12  A    between atoms: _29  and  _30
REMARK   13  A    between atoms: _29  and  _32
REMARK   14  A    between atoms: _32  and  _33
REMARK   15  A    between atoms: _36  and  _38
REMARK   16  A    between atoms: _38  and  _39
REMARK   17  A    between atoms: _38  and  _41
REMARK   18  A    between atoms: _41  and  _42
REMARK   19  A    between atoms: _45  and  _47
REMARK   20  A    between atoms: _47  and  _48
REMARK   21  A    between atoms: _47  and  _50
REMARK   22  A    between atoms: _50  and  _51
REMARK   23  A    between atoms: _54  and  _56
REMARK   24  A    between atoms: _56  and  _57
REMARK   25  A    between atoms: _59  and  _61
REMARK   26  A    between atoms: _61  and  _62
REMARK   27  A    between atoms: _65  and  _67
REMARK   28  A    between atoms: _67  and  _68
REMARK   29  A    between atoms: _67  and  _70
REMARK   30  A    between atoms: _70  and  _71
REMARK   31  A    between atoms: _74  and  _76
REMARK   32  A    between atoms: _76  and  _77
REMARK   33  A    between atoms: _76  and  _79
REMARK   34  A    between atoms: _79  and  _80
REMARK   35  A    between atoms: _83  and  _85
REMARK   36  A    between atoms: _85  and  _86
REMARK   37  A    between atoms: _85  and  _88
REMARK   38  A    between atoms: _88  and  _89
REMARK   39  A    between atoms: _92  and  _94
REMARK   40  A    between atoms: _94  and  _95
REMARK   41  A    between atoms: _94  and  _97
REMARK   42  A    between atoms: _100  and  _102
REMARK   43  A    between atoms: _102  and  _103
REMARK   44  A    between atoms: _102  and  _105
REMARK   45  A    between atoms: _105  and  _106
REMARK   46  A    between atoms: _106  and  _107
REMARK   47  A    between atoms: _107  and  _108
REMARK   48  A    between atoms: _108  and  _109
REMARK   49  A    between atoms: _113  and  _115
REMARK   50  A    between atoms: _115  and  _116
REMARK   51  A    between atoms: _115  and  _118
REMARK   52  A    between atoms: _118  and  _119
REMARK   53  A    between atoms: _119  and  _120
REMARK   54  A    between atoms: _122  and  _124
REMARK   55  A    between atoms: _124  and  _125
REMARK   56  A    between atoms: _124  and  _127
REMARK   57  A    between atoms: _127  and  _128
REMARK   58  A    between atoms: _131  and  _133
REMARK   59  A    between atoms: _133  and  _134
REMARK   60  A    between atoms: _136  and  _138
REMARK   61  A    between atoms: _138  and  _139
REMARK   62  A    between atoms: _141  and  _143
REMARK   63  A    between atoms: _143  and  _144
REMARK   64  A    between atoms: _143  and  _146
REMARK   65  A    between atoms: _146  and  _147
REMARK   66  A    between atoms: _150  and  _152
REMARK   67  A    between atoms: _152  and  _153
REMARK   68  A    between atoms: _155  and  _157
REMARK   69  A    between atoms: _157  and  _158
REMARK   70  A    between atoms: _160  and  _162
REMARK   71  A    between atoms: _162  and  _163
REMARK   72  A    between atoms: _162  and  _165
REMARK   73  A    between atoms: _165  and  _166
REMARK   74  A    between atoms: _172  and  _174
REMARK   75  A    between atoms: _174  and  _175
REMARK   76  A    between atoms: _174  and  _177
REMARK   77  A    between atoms: _177  and  _178
REMARK   78  A    between atoms: _181  and  _183
REMARK   79  A    between atoms: _183  and  _184
REMARK   80  A    between atoms: _183  and  _186
REMARK   81  A    between atoms: _189  and  _191
REMARK   82  A    between atoms: _191  and  _192
REMARK   83  A    between atoms: _191  and  _194
REMARK   84  A    between atoms: _194  and  _195
REMARK   85  A    between atoms: _198  and  _200
REMARK   86  A    between atoms: _200  and  _201
REMARK   87  A    between atoms: _200  and  _203
REMARK   88  A    between atoms: _203  and  _204
REMARK   89  A    between atoms: _208  and  _209
REMARK   90  A    between atoms: _214  and  _216
REMARK   91  A    between atoms: _216  and  _217
REMARK   92  A    between atoms: _216  and  _219
REMARK   93  A    between atoms: _222  and  _224
REMARK   94  A    between atoms: _224  and  _225
REMARK   95  A    between atoms: _224  and  _227
REMARK   96  A    between atoms: _227  and  _228
REMARK   97  A    between atoms: _233  and  _235
REMARK   98  A    between atoms: _235  and  _236
REMARK   99  A    between atoms: _235  and  _238
REMARK  100  A    between atoms: _238  and  _239
REMARK  101  A    between atoms: _242  and  _244
REMARK  102  A    between atoms: _244  and  _245
REMARK  103  A    between atoms: _244  and  _247
REMARK  104  A    between atoms: _247  and  _248
REMARK  105  A    between atoms: _251  and  _253
REMARK  106  A    between atoms: _253  and  _254
REMARK  107  A    between atoms: _256  and  _258
REMARK  108  A    between atoms: _258  and  _259
REMARK  109  A    between atoms: _258  and  _261
REMARK  110  A    between atoms: _261  and  _262
REMARK  111  A    between atoms: _262  and  _263
REMARK  112  A    between atoms: _263  and  _264
REMARK  113  A    between atoms: _273  and  _275
REMARK  114  A    between atoms: _275  and  _276
REMARK  115  A    between atoms: _275  and  _278
REMARK  116  A    between atoms: _278  and  _279
REMARK  117  A    between atoms: _284  and  _286
REMARK  118  A    between atoms: _286  and  _287
REMARK  119  A    between atoms: _286  and  _289
REMARK  120  A    between atoms: _289  and  _290
REMARK  121  A    between atoms: _290  and  _291
REMARK  122  A    between atoms: _291  and  _292
REMARK  123  A    between atoms: _301  and  _303
REMARK  124  A    between atoms: _303  and  _304
REMARK  125  A    between atoms: _303  and  _306
REMARK  126  A    between atoms: _306  and  _307
REMARK  127  A    between atoms: _310  and  _312
REMARK  128  A    between atoms: _312  and  _313
REMARK  129  A    between atoms: _312  and  _315
REMARK  130  A    between atoms: _315  and  _316
REMARK  131  A    between atoms: _319  and  _321
REMARK  132  A    between atoms: _321  and  _322
REMARK  133  A    between atoms: _321  and  _324
REMARK  134  A    between atoms: _324  and  _325
REMARK  135  A    between atoms: _328  and  _330
REMARK  136  A    between atoms: _330  and  _331
REMARK  137  A    between atoms: _330  and  _333
REMARK  138  A    between atoms: _333  and  _334
REMARK  139  A    between atoms: _337  and  _339
REMARK  140  A    between atoms: _339  and  _340
REMARK  141  A    between atoms: _342  and  _344
REMARK  142  A    between atoms: _344  and  _345
REMARK  143  A    between atoms: _348  and  _350
REMARK  144  A    between atoms: _350  and  _351
REMARK  145  A    between atoms: _350  and  _353
REMARK  146  A    between atoms: _353  and  _354
REMARK  147  A    between atoms: _357  and  _359
REMARK  148  A    between atoms: _359  and  _360
REMARK  149  A    between atoms: _359  and  _362
REMARK  150  A    between atoms: _362  and  _363
REMARK  151  A    between atoms: _366  and  _368
REMARK  152  A    between atoms: _368  and  _369
REMARK  153  A    between atoms: _368  and  _371
REMARK  154  A    between atoms: _371  and  _372
REMARK  155  A    between atoms: _375  and  _377
REMARK  156  A    between atoms: _377  and  _378
REMARK  157  A    between atoms: _377  and  _380
REMARK  158  A    between atoms: _383  and  _385
REMARK  159  A    between atoms: _385  and  _386
REMARK  160  A    between atoms: _385  and  _388
REMARK  161  A    between atoms: _388  and  _389
REMARK  162  A    between atoms: _392  and  _394
REMARK  163  A    between atoms: _394  and  _395
REMARK  164  A    between atoms: _394  and  _397
REMARK  165  A    between atoms: _397  and  _398
REMARK  166  A    between atoms: _398  and  _399
REMARK  167  A    between atoms: _399  and  _400
REMARK  168  A    between atoms: _400  and  _401
REMARK  169  A    between atoms: _405  and  _407
REMARK  170  A    between atoms: _407  and  _408
REMARK  171  A    between atoms: _407  and  _410
REMARK  172  A    between atoms: _410  and  _411
REMARK  173  A    between atoms: _414  and  _416
REMARK  174  A    between atoms: _416  and  _417
REMARK  175  A    between atoms: _419  and  _421
REMARK  176  A    between atoms: _421  and  _422
REMARK  177  A    between atoms: _424  and  _426
REMARK  178  A    between atoms: _426  and  _427
REMARK  179  A    between atoms: _426  and  _429
REMARK  180  A    between atoms: _429  and  _430
REMARK  181  A    between atoms: _433  and  _435
REMARK  182  A    between atoms: _435  and  _436
REMARK  183  A    between atoms: _438  and  _440
REMARK  184  A    between atoms: _440  and  _441
REMARK  185  A    between atoms: _443  and  _445
REMARK  186  A    between atoms: _445  and  _446
REMARK  187  A    between atoms: _445  and  _448
REMARK  188  A    between atoms: _448  and  _449
REMARK  189  A    between atoms: _455  and  _457
REMARK  190  A    between atoms: _457  and  _458
REMARK  191  A    between atoms: _457  and  _460
REMARK  192  A    between atoms: _460  and  _461
REMARK  193  A    between atoms: _464  and  _466
REMARK  194  A    between atoms: _466  and  _467
REMARK  195  A    between atoms: _466  and  _469
REMARK  196  A    between atoms: _472  and  _474
REMARK  197  A    between atoms: _474  and  _475
REMARK  198  A    between atoms: _474  and  _477
REMARK  199  A    between atoms: _477  and  _478
REMARK  200  A    between atoms: _482  and  _483
REMARK  201  A    between atoms: _488  and  _490
REMARK  202  A    between atoms: _490  and  _491
REMARK  203  A    between atoms: _490  and  _493
REMARK  204  A    between atoms: _493  and  _494
REMARK  205  A    between atoms: _498  and  _499
REMARK  206  A    between atoms: _504  and  _506
REMARK  207  A    between atoms: _506  and  _507
REMARK  208  A    between atoms: _506  and  _509
REMARK  209  A    between atoms: _512  and  _514
REMARK  210  A    between atoms: _514  and  _515
REMARK  211  A    between atoms: _514  and  _517
REMARK  212  A    between atoms: _517  and  _518
REMARK  213  A    between atoms: _523  and  _525
REMARK  214  A    between atoms: _525  and  _526
REMARK  215  A    between atoms: _525  and  _528
REMARK  216  A    between atoms: _528  and  _529
REMARK  217  A    between atoms: _532  and  _534
REMARK  218  A    between atoms: _534  and  _535
REMARK  219  A    between atoms: _534  and  _537
REMARK  220  A    between atoms: _537  and  _538
REMARK  221  A    between atoms: _541  and  _543
REMARK  222  A    between atoms: _543  and  _544
REMARK  223  A    between atoms: _546  and  _548
REMARK  224  A    between atoms: _548  and  _549
REMARK  225  A    between atoms: _548  and  _551
REMARK  226  A    between atoms: _551  and  _552
REMARK  227  A    between atoms: _552  and  _553
REMARK  228  A    between atoms: _553  and  _554
REMARK  229  A    between atoms: _563  and  _565
REMARK  230  A    between atoms: _565  and  _566
REMARK  231  A    between atoms: _565  and  _568
REMARK  232  A    between atoms: _568  and  _569
REMARK                            x       y       z     vdW  Elec       q    Type
REMARK                         _______ _______ _______ _____ _____    ______ ____
ROOT
ATOM      1  O   HOH     1      -2.612  22.338  -9.138  0.00  0.00    +0.000 OA
ENDROOT
TORSDOF 0
REMARK  Name = ../refined-set-2016/1m0b/1m0b_pocket.pdb
REMARK  232 active torsions:
REMARK  status: ('A' for Active; 'I' for Inactive)
REMARK    1  A    between atoms: _1  and  _3
REMARK    2  A    between atoms: _3  and  _4
REMARK    3  A    between atoms: _3  and  _6
REMARK    4  A    between atoms: _6  and  _7
REMARK    5  A    between atoms: _7  and  _8
REMARK    6  A    between atoms: _8  and  _9
REMARK    7  A    between atoms: _18  and  _20
REMARK    8  A    between atoms: _20  and  _21
REMARK    9  A    between atoms: _20  and  _23
REMARK   10  A    between atoms: _23  and  _24
REMARK   11  A    between atoms: _27  and  _29
REMARK   12  A    between atoms: _29  and  _30
REMARK   13  A    between atoms: _29  and  _32
REMARK   14  A    between atoms: _32  and  _33
REMARK   15  A    between atoms: _36  and  _38
REMARK   16  A    between atoms: _38  and  _39
REMARK   17  A    between atoms: _38  and  _41
REMARK   18  A    between atoms: _41  and  _42
REMARK   19  A    between atoms: _45  and  _47
REMARK   20  A    between atoms: _47  and  _48
REMARK   21  A    between atoms: _47  and  _50
REMARK   22  A    between atoms: _50  and  _51
REMARK   23  A    between atoms: _54  and  _56
REMARK   24  A    between atoms: _56  and  _57
REMARK   25  A    between atoms: _59  and  _61
REMARK   26  A    between atoms: _61  and  _62
REMARK   27  A    between atoms: _65  and  _67
REMARK   28  A    between atoms: _67  and  _68
REMARK   29  A    between atoms: _67  and  _70
REMARK   30  A    between atoms: _70  and  _71
REMARK   31  A    between atoms: _74  and  _76
REMARK   32  A    between atoms: _76  and  _77
REMARK   33  A    between atoms: _76  and  _79
REMARK   34  A    between atoms: _79  and  _80
REMARK   35  A    between atoms: _83  and  _85
REMARK   36  A    between atoms: _85  and  _86
REMARK   37  A    between atoms: _85  and  _88
REMARK   38  A    between atoms: _88  and  _89
REMARK   39  A    between atoms: _92  and  _94
REMARK   40  A    between atoms: _94  and  _95
REMARK   41  A    between atoms: _94  and  _97
REMARK   42  A    between atoms: _100  and  _102
REMARK   43  A    between atoms: _102  and  _103
REMARK   44  A    between atoms: _102  and  _105
REMARK   45  A    between atoms: _105  and  _106
REMARK   46  A    between atoms: _106  and  _107
REMARK   47  A    between atoms: _107  and  _108
REMARK   48  A    between atoms: _108  and  _109
REMARK   49  A    between atoms: _113  and  _115
REMARK   50  A    between atoms: _115  and  _116
REMARK   51  A    between atoms: _115  and  _118
REMARK   52  A    between atoms: _118  and  _119
REMARK   53  A    between atoms: _119  and  _120
REMARK   54  A    between atoms: _122  and  _124
REMARK   55  A    between atoms: _124  and  _125
REMARK   56  A    between atoms: _124  and  _127
REMARK   57  A    between atoms: _127  and  _128
REMARK   58  A    between atoms: _131  and  _133
REMARK   59  A    between atoms: _133  and  _134
REMARK   60  A    between atoms: _136  and  _138
REMARK   61  A    between atoms: _138  and  _139
REMARK   62  A    between atoms: _141  and  _143
REMARK   63  A    between atoms: _143  and  _144
REMARK   64  A    between atoms: _143  and  _146
REMARK   65  A    between atoms: _146  and  _147
REMARK   66  A    between atoms: _150  and  _152
REMARK   67  A    between atoms: _152  and  _153
REMARK   68  A    between atoms: _155  and  _157
REMARK   69  A    between atoms: _157  and  _158
REMARK   70  A    between atoms: _160  and  _162
REMARK   71  A    between atoms: _162  and  _163
REMARK   72  A    between atoms: _162  and  _165
REMARK   73  A    between atoms: _165  and  _166
REMARK   74  A    between atoms: _172  and  _174
REMARK   75  A    between atoms: _174  and  _175
REMARK   76  A    between atoms: _174  and  _177
REMARK   77  A    between atoms: _177  and  _178
REMARK   78  A    between atoms: _181  and  _183
REMARK   79  A    between atoms: _183  and  _184
REMARK   80  A    between atoms: _183  and  _186
REMARK   81  A    between atoms: _189  and  _191
REMARK   82  A    between atoms: _191  and  _192
REMARK   83  A    between atoms: _191  and  _194
REMARK   84  A    between atoms: _194  and  _195
REMARK   85  A    between atoms: _198  and  _200
REMARK   86  A    between atoms: _200  and  _201
REMARK   87  A    between atoms: _200  and  _203
REMARK   88  A    between atoms: _203  and  _204
REMARK   89  A    between atoms: _208  and  _209
REMARK   90  A    between atoms: _214  and  _216
REMARK   91  A    between atoms: _216  and  _217
REMARK   92  A    between atoms: _216  and  _219
REMARK   93  A    between atoms: _222  and  _224
REMARK   94  A    between atoms: _224  and  _225
REMARK   95  A    between atoms: _224  and  _227
REMARK   96  A    between atoms: _227  and  _228
REMARK   97  A    between atoms: _233  and  _235
REMARK   98  A    between atoms: _235  and  _236
REMARK   99  A    between atoms: _235  and  _238
REMARK  100  A    between atoms: _238  and  _239
REMARK  101  A    between atoms: _242  and  _244
REMARK  102  A    between atoms: _244  and  _245
REMARK  103  A    between atoms: _244  and  _247
REMARK  104  A    between atoms: _247  and  _248
REMARK  105  A    between atoms: _251  and  _253
REMARK  106  A    between atoms: _253  and  _254
REMARK  107  A    between atoms: _256  and  _258
REMARK  108  A    between atoms: _258  and  _259
REMARK  109  A    between atoms: _258  and  _261
REMARK  110  A    between atoms: _261  and  _262
REMARK  111  A    between atoms: _262  and  _263
REMARK  112  A    between atoms: _263  and  _264
REMARK  113  A    between atoms: _273  and  _275
REMARK  114  A    between atoms: _275  and  _276
REMARK  115  A    between atoms: _275  and  _278
REMARK  116  A    between atoms: _278  and  _279
REMARK  117  A    between atoms: _284  and  _286
REMARK  118  A    between atoms: _286  and  _287
REMARK  119  A    between atoms: _286  and  _289
REMARK  120  A    between atoms: _289  and  _290
REMARK  121  A    between atoms: _290  and  _291
REMARK  122  A    between atoms: _291  and  _292
REMARK  123  A    between atoms: _301  and  _303
REMARK  124  A    between atoms: _303  and  _304
REMARK  125  A    between atoms: _303  and  _306
REMARK  126  A    between atoms: _306  and  _307
REMARK  127  A    between atoms: _310  and  _312
REMARK  128  A    between atoms: _312  and  _313
REMARK  129  A    between atoms: _312  and  _315
REMARK  130  A    between atoms: _315  and  _316
REMARK  131  A    between atoms: _319  and  _321
REMARK  132  A    between atoms: _321  and  _322
REMARK  133  A    between atoms: _321  and  _324
REMARK  134  A    between atoms: _324  and  _325
REMARK  135  A    between atoms: _328  and  _330
REMARK  136  A    between atoms: _330  and  _331
REMARK  137  A    between atoms: _330  and  _333
REMARK  138  A    between atoms: _333  and  _334
REMARK  139  A    between atoms: _337  and  _339
REMARK  140  A    between atoms: _339  and  _340
REMARK  141  A    between atoms: _342  and  _344
REMARK  142  A    between atoms: _344  and  _345
REMARK  143  A    between atoms: _348  and  _350
REMARK  144  A    between atoms: _350  and  _351
REMARK  145  A    between atoms: _350  and  _353
REMARK  146  A    between atoms: _353  and  _354
REMARK  147  A    between atoms: _357  and  _359
REMARK  148  A    between atoms: _359  and  _360
REMARK  149  A    between atoms: _359  and  _362
REMARK  150  A    between atoms: _362  and  _363
REMARK  151  A    between atoms: _366  and  _368
REMARK  152  A    between atoms: _368  and  _369
REMARK  153  A    between atoms: _368  and  _371
REMARK  154  A    between atoms: _371  and  _372
REMARK  155  A    between atoms: _375  and  _377
REMARK  156  A    between atoms: _377  and  _378
REMARK  157  A    between atoms: _377  and  _380
REMARK  158  A    between atoms: _383  and  _385
REMARK  159  A    between atoms: _385  and  _386
REMARK  160  A    between atoms: _385  and  _388
REMARK  161  A    between atoms: _388  and  _389
REMARK  162  A    between atoms: _392  and  _394
REMARK  163  A    between atoms: _394  and  _395
REMARK  164  A    between atoms: _394  and  _397
REMARK  165  A    between atoms: _397  and  _398
REMARK  166  A    between atoms: _398  and  _399
REMARK  167  A    between atoms: _399  and  _400
REMARK  168  A    between atoms: _400  and  _401
REMARK  169  A    between atoms: _405  and  _407
REMARK  170  A    between atoms: _407  and  _408
REMARK  171  A    between atoms: _407  and  _410
REMARK  172  A    between atoms: _410  and  _411
REMARK  173  A    between atoms: _414  and  _416
REMARK  174  A    between atoms: _416  and  _417
REMARK  175  A    between atoms: _419  and  _421
REMARK  176  A    between atoms: _421  and  _422
REMARK  177  A    between atoms: _424  and  _426
REMARK  178  A    between atoms: _426  and  _427
REMARK  179  A    between atoms: _426  and  _429
REMARK  180  A    between atoms: _429  and  _430
REMARK  181  A    between atoms: _433  and  _435
REMARK  182  A    between atoms: _435  and  _436
REMARK  183  A    between atoms: _438  and  _440
REMARK  184  A    between atoms: _440  and  _441
REMARK  185  A    between atoms: _443  and  _445
REMARK  186  A    between atoms: _445  and  _446
REMARK  187  A    between atoms: _445  and  _448
REMARK  188  A    between atoms: _448  and  _449
REMARK  189  A    between atoms: _455  and  _457
REMARK  190  A    between atoms: _457  and  _458
REMARK  191  A    between atoms: _457  and  _460
REMARK  192  A    between atoms: _460  and  _461
REMARK  193  A    between atoms: _464  and  _466
REMARK  194  A    between atoms: _466  and  _467
REMARK  195  A    between atoms: _466  and  _469
REMARK  196  A    between atoms: _472  and  _474
REMARK  197  A    between atoms: _474  and  _475
REMARK  198  A    between atoms: _474  and  _477
REMARK  199  A    between atoms: _477  and  _478
REMARK  200  A    between atoms: _482  and  _483
REMARK  201  A    between atoms: _488  and  _490
REMARK  202  A    between atoms: _490  and  _491
REMARK  203  A    between atoms: _490  and  _493
REMARK  204  A    between atoms: _493  and  _494
REMARK  205  A    between atoms: _498  and  _499
REMARK  206  A    between atoms: _504  and  _506
REMARK  207  A    between atoms: _506  and  _507
REMARK  208  A    between atoms: _506  and  _509
REMARK  209  A    between atoms: _512  and  _514
REMARK  210  A    between atoms: _514  and  _515
REMARK  211  A    between atoms: _514  and  _517
REMARK  212  A    between atoms: _517  and  _518
REMARK  213  A    between atoms: _523  and  _525
REMARK  214  A    between atoms: _525  and  _526
REMARK  215  A    between atoms: _525  and  _528
REMARK  216  A    between atoms: _528  and  _529
REMARK  217  A    between atoms: _532  and  _534
REMARK  218  A    between atoms: _534  and  _535
REMARK  219  A    between atoms: _534  and  _537
REMARK  220  A    between atoms: _537  and  _538
REMARK  221  A    between atoms: _541  and  _543
REMARK  222  A    between atoms: _543  and  _544
REMARK  223  A    between atoms: _546  and  _548
REMARK  224  A    between atoms: _548  and  _549
REMARK  225  A    between atoms: _548  and  _551
REMARK  226  A    between atoms: _551  and  _552
REMARK  227  A    between atoms: _552  and  _553
REMARK  228  A    between atoms: _553  and  _554
REMARK  229  A    between atoms: _563  and  _565
REMARK  230  A    between atoms: _565  and  _566
REMARK  231  A    between atoms: _565  and  _568
REMARK  232  A    between atoms: _568  and  _569
REMARK                            x       y       z     vdW  Elec       q    Type
REMARK                         _______ _______ _______ _____ _____    ______ ____
ROOT
ATOM      1  O   HOH     1       0.274  22.687  -6.388  0.00  0.00    +0.000 OA
ENDROOT
TORSDOF 0
REMARK  Name = ../refined-set-2016/1m0b/1m0b_pocket.pdb
REMARK  232 active torsions:
REMARK  status: ('A' for Active; 'I' for Inactive)
REMARK    1  A    between atoms: _1  and  _3
REMARK    2  A    between atoms: _3  and  _4
REMARK    3  A    between atoms: _3  and  _6
REMARK    4  A    between atoms: _6  and  _7
REMARK    5  A    between atoms: _7  and  _8
REMARK    6  A    between atoms: _8  and  _9
REMARK    7  A    between atoms: _18  and  _20
REMARK    8  A    between atoms: _20  and  _21
REMARK    9  A    between atoms: _20  and  _23
REMARK   10  A    between atoms: _23  and  _24
REMARK   11  A    between atoms: _27  and  _29
REMARK   12  A    between atoms: _29  and  _30
REMARK   13  A    between atoms: _29  and  _32
REMARK   14  A    between atoms: _32  and  _33
REMARK   15  A    between atoms: _36  and  _38
REMARK   16  A    between atoms: _38  and  _39
REMARK   17  A    between atoms: _38  and  _41
REMARK   18  A    between atoms: _41  and  _42
REMARK   19  A    between atoms: _45  and  _47
REMARK   20  A    between atoms: _47  and  _48
REMARK   21  A    between atoms: _47  and  _50
REMARK   22  A    between atoms: _50  and  _51
REMARK   23  A    between atoms: _54  and  _56
REMARK   24  A    between atoms: _56  and  _57
REMARK   25  A    between atoms: _59  and  _61
REMARK   26  A    between atoms: _61  and  _62
REMARK   27  A    between atoms: _65  and  _67
REMARK   28  A    between atoms: _67  and  _68
REMARK   29  A    between atoms: _67  and  _70
REMARK   30  A    between atoms: _70  and  _71
REMARK   31  A    between atoms: _74  and  _76
REMARK   32  A    between atoms: _76  and  _77
REMARK   33  A    between atoms: _76  and  _79
REMARK   34  A    between atoms: _79  and  _80
REMARK   35  A    between atoms: _83  and  _85
REMARK   36  A    between atoms: _85  and  _86
REMARK   37  A    between atoms: _85  and  _88
REMARK   38  A    between atoms: _88  and  _89
REMARK   39  A    between atoms: _92  and  _94
REMARK   40  A    between atoms: _94  and  _95
REMARK   41  A    between atoms: _94  and  _97
REMARK   42  A    between atoms: _100  and  _102
REMARK   43  A    between atoms: _102  and  _103
REMARK   44  A    between atoms: _102  and  _105
REMARK   45  A    between atoms: _105  and  _106
REMARK   46  A    between atoms: _106  and  _107
REMARK   47  A    between atoms: _107  and  _108
REMARK   48  A    between atoms: _108  and  _109
REMARK   49  A    between atoms: _113  and  _115
REMARK   50  A    between atoms: _115  and  _116
REMARK   51  A    between atoms: _115  and  _118
REMARK   52  A    between atoms: _118  and  _119
REMARK   53  A    between atoms: _119  and  _120
REMARK   54  A    between atoms: _122  and  _124
REMARK   55  A    between atoms: _124  and  _125
REMARK   56  A    between atoms: _124  and  _127
REMARK   57  A    between atoms: _127  and  _128
REMARK   58  A    between atoms: _131  and  _133
REMARK   59  A    between atoms: _133  and  _134
REMARK   60  A    between atoms: _136  and  _138
REMARK   61  A    between atoms: _138  and  _139
REMARK   62  A    between atoms: _141  and  _143
REMARK   63  A    between atoms: _143  and  _144
REMARK   64  A    between atoms: _143  and  _146
REMARK   65  A    between atoms: _146  and  _147
REMARK   66  A    between atoms: _150  and  _152
REMARK   67  A    between atoms: _152  and  _153
REMARK   68  A    between atoms: _155  and  _157
REMARK   69  A    between atoms: _157  and  _158
REMARK   70  A    between atoms: _160  and  _162
REMARK   71  A    between atoms: _162  and  _163
REMARK   72  A    between atoms: _162  and  _165
REMARK   73  A    between atoms: _165  and  _166
REMARK   74  A    between atoms: _172  and  _174
REMARK   75  A    between atoms: _174  and  _175
REMARK   76  A    between atoms: _174  and  _177
REMARK   77  A    between atoms: _177  and  _178
REMARK   78  A    between atoms: _181  and  _183
REMARK   79  A    between atoms: _183  and  _184
REMARK   80  A    between atoms: _183  and  _186
REMARK   81  A    between atoms: _189  and  _191
REMARK   82  A    between atoms: _191  and  _192
REMARK   83  A    between atoms: _191  and  _194
REMARK   84  A    between atoms: _194  and  _195
REMARK   85  A    between atoms: _198  and  _200
REMARK   86  A    between atoms: _200  and  _201
REMARK   87  A    between atoms: _200  and  _203
REMARK   88  A    between atoms: _203  and  _204
REMARK   89  A    between atoms: _208  and  _209
REMARK   90  A    between atoms: _214  and  _216
REMARK   91  A    between atoms: _216  and  _217
REMARK   92  A    between atoms: _216  and  _219
REMARK   93  A    between atoms: _222  and  _224
REMARK   94  A    between atoms: _224  and  _225
REMARK   95  A    between atoms: _224  and  _227
REMARK   96  A    between atoms: _227  and  _228
REMARK   97  A    between atoms: _233  and  _235
REMARK   98  A    between atoms: _235  and  _236
REMARK   99  A    between atoms: _235  and  _238
REMARK  100  A    between atoms: _238  and  _239
REMARK  101  A    between atoms: _242  and  _244
REMARK  102  A    between atoms: _244  and  _245
REMARK  103  A    between atoms: _244  and  _247
REMARK  104  A    between atoms: _247  and  _248
REMARK  105  A    between atoms: _251  and  _253
REMARK  106  A    between atoms: _253  and  _254
REMARK  107  A    between atoms: _256  and  _258
REMARK  108  A    between atoms: _258  and  _259
REMARK  109  A    between atoms: _258  and  _261
REMARK  110  A    between atoms: _261  and  _262
REMARK  111  A    between atoms: _262  and  _263
REMARK  112  A    between atoms: _263  and  _264
REMARK  113  A    between atoms: _273  and  _275
REMARK  114  A    between atoms: _275  and  _276
REMARK  115  A    between atoms: _275  and  _278
REMARK  116  A    between atoms: _278  and  _279
REMARK  117  A    between atoms: _284  and  _286
REMARK  118  A    between atoms: _286  and  _287
REMARK  119  A    between atoms: _286  and  _289
REMARK  120  A    between atoms: _289  and  _290
REMARK  121  A    between atoms: _290  and  _291
REMARK  122  A    between atoms: _291  and  _292
REMARK  123  A    between atoms: _301  and  _303
REMARK  124  A    between atoms: _303  and  _304
REMARK  125  A    between atoms: _303  and  _306
REMARK  126  A    between atoms: _306  and  _307
REMARK  127  A    between atoms: _310  and  _312
REMARK  128  A    between atoms: _312  and  _313
REMARK  129  A    between atoms: _312  and  _315
REMARK  130  A    between atoms: _315  and  _316
REMARK  131  A    between atoms: _319  and  _321
REMARK  132  A    between atoms: _321  and  _322
REMARK  133  A    between atoms: _321  and  _324
REMARK  134  A    between atoms: _324  and  _325
REMARK  135  A    between atoms: _328  and  _330
REMARK  136  A    between atoms: _330  and  _331
REMARK  137  A    between atoms: _330  and  _333
REMARK  138  A    between atoms: _333  and  _334
REMARK  139  A    between atoms: _337  and  _339
REMARK  140  A    between atoms: _339  and  _340
REMARK  141  A    between atoms: _342  and  _344
REMARK  142  A    between atoms: _344  and  _345
REMARK  143  A    between atoms: _348  and  _350
REMARK  144  A    between atoms: _350  and  _351
REMARK  145  A    between atoms: _350  and  _353
REMARK  146  A    between atoms: _353  and  _354
REMARK  147  A    between atoms: _357  and  _359
REMARK  148  A    between atoms: _359  and  _360
REMARK  149  A    between atoms: _359  and  _362
REMARK  150  A    between atoms: _362  and  _363
REMARK  151  A    between atoms: _366  and  _368
REMARK  152  A    between atoms: _368  and  _369
REMARK  153  A    between atoms: _368  and  _371
REMARK  154  A    between atoms: _371  and  _372
REMARK  155  A    between atoms: _375  and  _377
REMARK  156  A    between atoms: _377  and  _378
REMARK  157  A    between atoms: _377  and  _380
REMARK  158  A    between atoms: _383  and  _385
REMARK  159  A    between atoms: _385  and  _386
REMARK  160  A    between atoms: _385  and  _388
REMARK  161  A    between atoms: _388  and  _389
REMARK  162  A    between atoms: _392  and  _394
REMARK  163  A    between atoms: _394  and  _395
REMARK  164  A    between atoms: _394  and  _397
REMARK  165  A    between atoms: _397  and  _398
REMARK  166  A    between atoms: _398  and  _399
REMARK  167  A    between atoms: _399  and  _400
REMARK  168  A    between atoms: _400  and  _401
REMARK  169  A    between atoms: _405  and  _407
REMARK  170  A    between atoms: _407  and  _408
REMARK  171  A    between atoms: _407  and  _410
REMARK  172  A    between atoms: _410  and  _411
REMARK  173  A    between atoms: _414  and  _416
REMARK  174  A    between atoms: _416  and  _417
REMARK  175  A    between atoms: _419  and  _421
REMARK  176  A    between atoms: _421  and  _422
REMARK  177  A    between atoms: _424  and  _426
REMARK  178  A    between atoms: _426  and  _427
REMARK  179  A    between atoms: _426  and  _429
REMARK  180  A    between atoms: _429  and  _430
REMARK  181  A    between atoms: _433  and  _435
REMARK  182  A    between atoms: _435  and  _436
REMARK  183  A    between atoms: _438  and  _440
REMARK  184  A    between atoms: _440  and  _441
REMARK  185  A    between atoms: _443  and  _445
REMARK  186  A    between atoms: _445  and  _446
REMARK  187  A    between atoms: _445  and  _448
REMARK  188  A    between atoms: _448  and  _449
REMARK  189  A    between atoms: _455  and  _457
REMARK  190  A    between atoms: _457  and  _458
REMARK  191  A    between atoms: _457  and  _460
REMARK  192  A    between atoms: _460  and  _461
REMARK  193  A    between atoms: _464  and  _466
REMARK  194  A    between atoms: _466  and  _467
REMARK  195  A    between atoms: _466  and  _469
REMARK  196  A    between atoms: _472  and  _474
REMARK  197  A    between atoms: _474  and  _475
REMARK  198  A    between atoms: _474  and  _477
REMARK  199  A    between atoms: _477  and  _478
REMARK  200  A    between atoms: _482  and  _483
REMARK  201  A    between atoms: _488  and  _490
REMARK  202  A    between atoms: _490  and  _491
REMARK  203  A    between atoms: _490  and  _493
REMARK  204  A    between atoms: _493  and  _494
REMARK  205  A    between atoms: _498  and  _499
REMARK  206  A    between atoms: _504  and  _506
REMARK  207  A    between atoms: _506  and  _507
REMARK  208  A    between atoms: _506  and  _509
REMARK  209  A    between atoms: _512  and  _514
REMARK  210  A    between atoms: _514  and  _515
REMARK  211  A    between atoms: _514  and  _517
REMARK  212  A    between atoms: _517  and  _518
REMARK  213  A    between atoms: _523  and  _525
REMARK  214  A    between atoms: _525  and  _526
REMARK  215  A    between atoms: _525  and  _528
REMARK  216  A    between atoms: _528  and  _529
REMARK  217  A    between atoms: _532  and  _534
REMARK  218  A    between atoms: _534  and  _535
REMARK  219  A    between atoms: _534  and  _537
REMARK  220  A    between atoms: _537  and  _538
REMARK  221  A    between atoms: _541  and  _543
REMARK  222  A    between atoms: _543  and  _544
REMARK  223  A    between atoms: _546  and  _548
REMARK  224  A    between atoms: _548  and  _549
REMARK  225  A    between atoms: _548  and  _551
REMARK  226  A    between atoms: _551  and  _552
REMARK  227  A    between atoms: _552  and  _553
REMARK  228  A    between atoms: _553  and  _554
REMARK  229  A    between atoms: _563  and  _565
REMARK  230  A    between atoms: _565  and  _566
REMARK  231  A    between atoms: _565  and  _568
REMARK  232  A    between atoms: _568  and  _569
REMARK                            x       y       z     vdW  Elec       q    Type
REMARK                         _______ _______ _______ _____ _____    ______ ____
ROOT
ATOM      1  O   HOH     1      -0.346  19.247  -8.673  0.00  0.00    +0.000 OA
ENDROOT
TORSDOF 0
REMARK  Name = ../refined-set-2016/1m0b/1m0b_pocket.pdb
REMARK  232 active torsions:
REMARK  status: ('A' for Active; 'I' for Inactive)
REMARK    1  A    between atoms: _1  and  _3
REMARK    2  A    between atoms: _3  and  _4
REMARK    3  A    between atoms: _3  and  _6
REMARK    4  A    between atoms: _6  and  _7
REMARK    5  A    between atoms: _7  and  _8
REMARK    6  A    between atoms: _8  and  _9
REMARK    7  A    between atoms: _18  and  _20
REMARK    8  A    between atoms: _20  and  _21
REMARK    9  A    between atoms: _20  and  _23
REMARK   10  A    between atoms: _23  and  _24
REMARK   11  A    between atoms: _27  and  _29
REMARK   12  A    between atoms: _29  and  _30
REMARK   13  A    between atoms: _29  and  _32
REMARK   14  A    between atoms: _32  and  _33
REMARK   15  A    between atoms: _36  and  _38
REMARK   16  A    between atoms: _38  and  _39
REMARK   17  A    between atoms: _38  and  _41
REMARK   18  A    between atoms: _41  and  _42
REMARK   19  A    between atoms: _45  and  _47
REMARK   20  A    between atoms: _47  and  _48
REMARK   21  A    between atoms: _47  and  _50
REMARK   22  A    between atoms: _50  and  _51
REMARK   23  A    between atoms: _54  and  _56
REMARK   24  A    between atoms: _56  and  _57
REMARK   25  A    between atoms: _59  and  _61
REMARK   26  A    between atoms: _61  and  _62
REMARK   27  A    between atoms: _65  and  _67
REMARK   28  A    between atoms: _67  and  _68
REMARK   29  A    between atoms: _67  and  _70
REMARK   30  A    between atoms: _70  and  _71
REMARK   31  A    between atoms: _74  and  _76
REMARK   32  A    between atoms: _76  and  _77
REMARK   33  A    between atoms: _76  and  _79
REMARK   34  A    between atoms: _79  and  _80
REMARK   35  A    between atoms: _83  and  _85
REMARK   36  A    between atoms: _85  and  _86
REMARK   37  A    between atoms: _85  and  _88
REMARK   38  A    between atoms: _88  and  _89
REMARK   39  A    between atoms: _92  and  _94
REMARK   40  A    between atoms: _94  and  _95
REMARK   41  A    between atoms: _94  and  _97
REMARK   42  A    between atoms: _100  and  _102
REMARK   43  A    between atoms: _102  and  _103
REMARK   44  A    between atoms: _102  and  _105
REMARK   45  A    between atoms: _105  and  _106
REMARK   46  A    between atoms: _106  and  _107
REMARK   47  A    between atoms: _107  and  _108
REMARK   48  A    between atoms: _108  and  _109
REMARK   49  A    between atoms: _113  and  _115
REMARK   50  A    between atoms: _115  and  _116
REMARK   51  A    between atoms: _115  and  _118
REMARK   52  A    between atoms: _118  and  _119
REMARK   53  A    between atoms: _119  and  _120
REMARK   54  A    between atoms: _122  and  _124
REMARK   55  A    between atoms: _124  and  _125
REMARK   56  A    between atoms: _124  and  _127
REMARK   57  A    between atoms: _127  and  _128
REMARK   58  A    between atoms: _131  and  _133
REMARK   59  A    between atoms: _133  and  _134
REMARK   60  A    between atoms: _136  and  _138
REMARK   61  A    between atoms: _138  and  _139
REMARK   62  A    between atoms: _141  and  _143
REMARK   63  A    between atoms: _143  and  _144
REMARK   64  A    between atoms: _143  and  _146
REMARK   65  A    between atoms: _146  and  _147
REMARK   66  A    between atoms: _150  and  _152
REMARK   67  A    between atoms: _152  and  _153
REMARK   68  A    between atoms: _155  and  _157
REMARK   69  A    between atoms: _157  and  _158
REMARK   70  A    between atoms: _160  and  _162
REMARK   71  A    between atoms: _162  and  _163
REMARK   72  A    between atoms: _162  and  _165
REMARK   73  A    between atoms: _165  and  _166
REMARK   74  A    between atoms: _172  and  _174
REMARK   75  A    between atoms: _174  and  _175
REMARK   76  A    between atoms: _174  and  _177
REMARK   77  A    between atoms: _177  and  _178
REMARK   78  A    between atoms: _181  and  _183
REMARK   79  A    between atoms: _183  and  _184
REMARK   80  A    between atoms: _183  and  _186
REMARK   81  A    between atoms: _189  and  _191
REMARK   82  A    between atoms: _191  and  _192
REMARK   83  A    between atoms: _191  and  _194
REMARK   84  A    between atoms: _194  and  _195
REMARK   85  A    between atoms: _198  and  _200
REMARK   86  A    between atoms: _200  and  _201
REMARK   87  A    between atoms: _200  and  _203
REMARK   88  A    between atoms: _203  and  _204
REMARK   89  A    between atoms: _208  and  _209
REMARK   90  A    between atoms: _214  and  _216
REMARK   91  A    between atoms: _216  and  _217
REMARK   92  A    between atoms: _216  and  _219
REMARK   93  A    between atoms: _222  and  _224
REMARK   94  A    between atoms: _224  and  _225
REMARK   95  A    between atoms: _224  and  _227
REMARK   96  A    between atoms: _227  and  _228
REMARK   97  A    between atoms: _233  and  _235
REMARK   98  A    between atoms: _235  and  _236
REMARK   99  A    between atoms: _235  and  _238
REMARK  100  A    between atoms: _238  and  _239
REMARK  101  A    between atoms: _242  and  _244
REMARK  102  A    between atoms: _244  and  _245
REMARK  103  A    between atoms: _244  and  _247
REMARK  104  A    between atoms: _247  and  _248
REMARK  105  A    between atoms: _251  and  _253
REMARK  106  A    between atoms: _253  and  _254
REMARK  107  A    between atoms: _256  and  _258
REMARK  108  A    between atoms: _258  and  _259
REMARK  109  A    between atoms: _258  and  _261
REMARK  110  A    between atoms: _261  and  _262
REMARK  111  A    between atoms: _262  and  _263
REMARK  112  A    between atoms: _263  and  _264
REMARK  113  A    between atoms: _273  and  _275
REMARK  114  A    between atoms: _275  and  _276
REMARK  115  A    between atoms: _275  and  _278
REMARK  116  A    between atoms: _278  and  _279
REMARK  117  A    between atoms: _284  and  _286
REMARK  118  A    between atoms: _286  and  _287
REMARK  119  A    between atoms: _286  and  _289
REMARK  120  A    between atoms: _289  and  _290
REMARK  121  A    between atoms: _290  and  _291
REMARK  122  A    between atoms: _291  and  _292
REMARK  123  A    between atoms: _301  and  _303
REMARK  124  A    between atoms: _303  and  _304
REMARK  125  A    between atoms: _303  and  _306
REMARK  126  A    between atoms: _306  and  _307
REMARK  127  A    between atoms: _310  and  _312
REMARK  128  A    between atoms: _312  and  _313
REMARK  129  A    between atoms: _312  and  _315
REMARK  130  A    between atoms: _315  and  _316
REMARK  131  A    between atoms: _319  and  _321
REMARK  132  A    between atoms: _321  and  _322
REMARK  133  A    between atoms: _321  and  _324
REMARK  134  A    between atoms: _324  and  _325
REMARK  135  A    between atoms: _328  and  _330
REMARK  136  A    between atoms: _330  and  _331
REMARK  137  A    between atoms: _330  and  _333
REMARK  138  A    between atoms: _333  and  _334
REMARK  139  A    between atoms: _337  and  _339
REMARK  140  A    between atoms: _339  and  _340
REMARK  141  A    between atoms: _342  and  _344
REMARK  142  A    between atoms: _344  and  _345
REMARK  143  A    between atoms: _348  and  _350
REMARK  144  A    between atoms: _350  and  _351
REMARK  145  A    between atoms: _350  and  _353
REMARK  146  A    between atoms: _353  and  _354
REMARK  147  A    between atoms: _357  and  _359
REMARK  148  A    between atoms: _359  and  _360
REMARK  149  A    between atoms: _359  and  _362
REMARK  150  A    between atoms: _362  and  _363
REMARK  151  A    between atoms: _366  and  _368
REMARK  152  A    between atoms: _368  and  _369
REMARK  153  A    between atoms: _368  and  _371
REMARK  154  A    between atoms: _371  and  _372
REMARK  155  A    between atoms: _375  and  _377
REMARK  156  A    between atoms: _377  and  _378
REMARK  157  A    between atoms: _377  and  _380
REMARK  158  A    between atoms: _383  and  _385
REMARK  159  A    between atoms: _385  and  _386
REMARK  160  A    between atoms: _385  and  _388
REMARK  161  A    between atoms: _388  and  _389
REMARK  162  A    between atoms: _392  and  _394
REMARK  163  A    between atoms: _394  and  _395
REMARK  164  A    between atoms: _394  and  _397
REMARK  165  A    between atoms: _397  and  _398
REMARK  166  A    between atoms: _398  and  _399
REMARK  167  A    between atoms: _399  and  _400
REMARK  168  A    between atoms: _400  and  _401
REMARK  169  A    between atoms: _405  and  _407
REMARK  170  A    between atoms: _407  and  _408
REMARK  171  A    between atoms: _407  and  _410
REMARK  172  A    between atoms: _410  and  _411
REMARK  173  A    between atoms: _414  and  _416
REMARK  174  A    between atoms: _416  and  _417
REMARK  175  A    between atoms: _419  and  _421
REMARK  176  A    between atoms: _421  and  _422
REMARK  177  A    between atoms: _424  and  _426
REMARK  178  A    between atoms: _426  and  _427
REMARK  179  A    between atoms: _426  and  _429
REMARK  180  A    between atoms: _429  and  _430
REMARK  181  A    between atoms: _433  and  _435
REMARK  182  A    between atoms: _435  and  _436
REMARK  183  A    between atoms: _438  and  _440
REMARK  184  A    between atoms: _440  and  _441
REMARK  185  A    between atoms: _443  and  _445
REMARK  186  A    between atoms: _445  and  _446
REMARK  187  A    between atoms: _445  and  _448
REMARK  188  A    between atoms: _448  and  _449
REMARK  189  A    between atoms: _455  and  _457
REMARK  190  A    between atoms: _457  and  _458
REMARK  191  A    between atoms: _457  and  _460
REMARK  192  A    between atoms: _460  and  _461
REMARK  193  A    between atoms: _464  and  _466
REMARK  194  A    between atoms: _466  and  _467
REMARK  195  A    between atoms: _466  and  _469
REMARK  196  A    between atoms: _472  and  _474
REMARK  197  A    between atoms: _474  and  _475
REMARK  198  A    between atoms: _474  and  _477
REMARK  199  A    between atoms: _477  and  _478
REMARK  200  A    between atoms: _482  and  _483
REMARK  201  A    between atoms: _488  and  _490
REMARK  202  A    between atoms: _490  and  _491
REMARK  203  A    between atoms: _490  and  _493
REMARK  204  A    between atoms: _493  and  _494
REMARK  205  A    between atoms: _498  and  _499
REMARK  206  A    between atoms: _504  and  _506
REMARK  207  A    between atoms: _506  and  _507
REMARK  208  A    between atoms: _506  and  _509
REMARK  209  A    between atoms: _512  and  _514
REMARK  210  A    between atoms: _514  and  _515
REMARK  211  A    between atoms: _514  and  _517
REMARK  212  A    between atoms: _517  and  _518
REMARK  213  A    between atoms: _523  and  _525
REMARK  214  A    between atoms: _525  and  _526
REMARK  215  A    between atoms: _525  and  _528
REMARK  216  A    between atoms: _528  and  _529
REMARK  217  A    between atoms: _532  and  _534
REMARK  218  A    between atoms: _534  and  _535
REMARK  219  A    between atoms: _534  and  _537
REMARK  220  A    between atoms: _537  and  _538
REMARK  221  A    between atoms: _541  and  _543
REMARK  222  A    between atoms: _543  and  _544
REMARK  223  A    between atoms: _546  and  _548
REMARK  224  A    between atoms: _548  and  _549
REMARK  225  A    between atoms: _548  and  _551
REMARK  226  A    between atoms: _551  and  _552
REMARK  227  A    between atoms: _552  and  _553
REMARK  228  A    between atoms: _553  and  _554
REMARK  229  A    between atoms: _563  and  _565
REMARK  230  A    between atoms: _565  and  _566
REMARK  231  A    between atoms: _565  and  _568
REMARK  232  A    between atoms: _568  and  _569
REMARK                            x       y       z     vdW  Elec       q    Type
REMARK                         _______ _______ _______ _____ _____    ______ ____
ROOT
ATOM      1  O   HOH     1     -15.246  16.443   4.403  0.00  0.00    +0.000 OA
ENDROOT
TORSDOF 0
REMARK  Name = ../refined-set-2016/1m0b/1m0b_pocket.pdb
REMARK  232 active torsions:
REMARK  status: ('A' for Active; 'I' for Inactive)
REMARK    1  A    between atoms: _1  and  _3
REMARK    2  A    between atoms: _3  and  _4
REMARK    3  A    between atoms: _3  and  _6
REMARK    4  A    between atoms: _6  and  _7
REMARK    5  A    between atoms: _7  and  _8
REMARK    6  A    between atoms: _8  and  _9
REMARK    7  A    between atoms: _18  and  _20
REMARK    8  A    between atoms: _20  and  _21
REMARK    9  A    between atoms: _20  and  _23
REMARK   10  A    between atoms: _23  and  _24
REMARK   11  A    between atoms: _27  and  _29
REMARK   12  A    between atoms: _29  and  _30
REMARK   13  A    between atoms: _29  and  _32
REMARK   14  A    between atoms: _32  and  _33
REMARK   15  A    between atoms: _36  and  _38
REMARK   16  A    between atoms: _38  and  _39
REMARK   17  A    between atoms: _38  and  _41
REMARK   18  A    between atoms: _41  and  _42
REMARK   19  A    between atoms: _45  and  _47
REMARK   20  A    between atoms: _47  and  _48
REMARK   21  A    between atoms: _47  and  _50
REMARK   22  A    between atoms: _50  and  _51
REMARK   23  A    between atoms: _54  and  _56
REMARK   24  A    between atoms: _56  and  _57
REMARK   25  A    between atoms: _59  and  _61
REMARK   26  A    between atoms: _61  and  _62
REMARK   27  A    between atoms: _65  and  _67
REMARK   28  A    between atoms: _67  and  _68
REMARK   29  A    between atoms: _67  and  _70
REMARK   30  A    between atoms: _70  and  _71
REMARK   31  A    between atoms: _74  and  _76
REMARK   32  A    between atoms: _76  and  _77
REMARK   33  A    between atoms: _76  and  _79
REMARK   34  A    between atoms: _79  and  _80
REMARK   35  A    between atoms: _83  and  _85
REMARK   36  A    between atoms: _85  and  _86
REMARK   37  A    between atoms: _85  and  _88
REMARK   38  A    between atoms: _88  and  _89
REMARK   39  A    between atoms: _92  and  _94
REMARK   40  A    between atoms: _94  and  _95
REMARK   41  A    between atoms: _94  and  _97
REMARK   42  A    between atoms: _100  and  _102
REMARK   43  A    between atoms: _102  and  _103
REMARK   44  A    between atoms: _102  and  _105
REMARK   45  A    between atoms: _105  and  _106
REMARK   46  A    between atoms: _106  and  _107
REMARK   47  A    between atoms: _107  and  _108
REMARK   48  A    between atoms: _108  and  _109
REMARK   49  A    between atoms: _113  and  _115
REMARK   50  A    between atoms: _115  and  _116
REMARK   51  A    between atoms: _115  and  _118
REMARK   52  A    between atoms: _118  and  _119
REMARK   53  A    between atoms: _119  and  _120
REMARK   54  A    between atoms: _122  and  _124
REMARK   55  A    between atoms: _124  and  _125
REMARK   56  A    between atoms: _124  and  _127
REMARK   57  A    between atoms: _127  and  _128
REMARK   58  A    between atoms: _131  and  _133
REMARK   59  A    between atoms: _133  and  _134
REMARK   60  A    between atoms: _136  and  _138
REMARK   61  A    between atoms: _138  and  _139
REMARK   62  A    between atoms: _141  and  _143
REMARK   63  A    between atoms: _143  and  _144
REMARK   64  A    between atoms: _143  and  _146
REMARK   65  A    between atoms: _146  and  _147
REMARK   66  A    between atoms: _150  and  _152
REMARK   67  A    between atoms: _152  and  _153
REMARK   68  A    between atoms: _155  and  _157
REMARK   69  A    between atoms: _157  and  _158
REMARK   70  A    between atoms: _160  and  _162
REMARK   71  A    between atoms: _162  and  _163
REMARK   72  A    between atoms: _162  and  _165
REMARK   73  A    between atoms: _165  and  _166
REMARK   74  A    between atoms: _172  and  _174
REMARK   75  A    between atoms: _174  and  _175
REMARK   76  A    between atoms: _174  and  _177
REMARK   77  A    between atoms: _177  and  _178
REMARK   78  A    between atoms: _181  and  _183
REMARK   79  A    between atoms: _183  and  _184
REMARK   80  A    between atoms: _183  and  _186
REMARK   81  A    between atoms: _189  and  _191
REMARK   82  A    between atoms: _191  and  _192
REMARK   83  A    between atoms: _191  and  _194
REMARK   84  A    between atoms: _194  and  _195
REMARK   85  A    between atoms: _198  and  _200
REMARK   86  A    between atoms: _200  and  _201
REMARK   87  A    between atoms: _200  and  _203
REMARK   88  A    between atoms: _203  and  _204
REMARK   89  A    between atoms: _208  and  _209
REMARK   90  A    between atoms: _214  and  _216
REMARK   91  A    between atoms: _216  and  _217
REMARK   92  A    between atoms: _216  and  _219
REMARK   93  A    between atoms: _222  and  _224
REMARK   94  A    between atoms: _224  and  _225
REMARK   95  A    between atoms: _224  and  _227
REMARK   96  A    between atoms: _227  and  _228
REMARK   97  A    between atoms: _233  and  _235
REMARK   98  A    between atoms: _235  and  _236
REMARK   99  A    between atoms: _235  and  _238
REMARK  100  A    between atoms: _238  and  _239
REMARK  101  A    between atoms: _242  and  _244
REMARK  102  A    between atoms: _244  and  _245
REMARK  103  A    between atoms: _244  and  _247
REMARK  104  A    between atoms: _247  and  _248
REMARK  105  A    between atoms: _251  and  _253
REMARK  106  A    between atoms: _253  and  _254
REMARK  107  A    between atoms: _256  and  _258
REMARK  108  A    between atoms: _258  and  _259
REMARK  109  A    between atoms: _258  and  _261
REMARK  110  A    between atoms: _261  and  _262
REMARK  111  A    between atoms: _262  and  _263
REMARK  112  A    between atoms: _263  and  _264
REMARK  113  A    between atoms: _273  and  _275
REMARK  114  A    between atoms: _275  and  _276
REMARK  115  A    between atoms: _275  and  _278
REMARK  116  A    between atoms: _278  and  _279
REMARK  117  A    between atoms: _284  and  _286
REMARK  118  A    between atoms: _286  and  _287
REMARK  119  A    between atoms: _286  and  _289
REMARK  120  A    between atoms: _289  and  _290
REMARK  121  A    between atoms: _290  and  _291
REMARK  122  A    between atoms: _291  and  _292
REMARK  123  A    between atoms: _301  and  _303
REMARK  124  A    between atoms: _303  and  _304
REMARK  125  A    between atoms: _303  and  _306
REMARK  126  A    between atoms: _306  and  _307
REMARK  127  A    between atoms: _310  and  _312
REMARK  128  A    between atoms: _312  and  _313
REMARK  129  A    between atoms: _312  and  _315
REMARK  130  A    between atoms: _315  and  _316
REMARK  131  A    between atoms: _319  and  _321
REMARK  132  A    between atoms: _321  and  _322
REMARK  133  A    between atoms: _321  and  _324
REMARK  134  A    between atoms: _324  and  _325
REMARK  135  A    between atoms: _328  and  _330
REMARK  136  A    between atoms: _330  and  _331
REMARK  137  A    between atoms: _330  and  _333
REMARK  138  A    between atoms: _333  and  _334
REMARK  139  A    between atoms: _337  and  _339
REMARK  140  A    between atoms: _339  and  _340
REMARK  141  A    between atoms: _342  and  _344
REMARK  142  A    between atoms: _344  and  _345
REMARK  143  A    between atoms: _348  and  _350
REMARK  144  A    between atoms: _350  and  _351
REMARK  145  A    between atoms: _350  and  _353
REMARK  146  A    between atoms: _353  and  _354
REMARK  147  A    between atoms: _357  and  _359
REMARK  148  A    between atoms: _359  and  _360
REMARK  149  A    between atoms: _359  and  _362
REMARK  150  A    between atoms: _362  and  _363
REMARK  151  A    between atoms: _366  and  _368
REMARK  152  A    between atoms: _368  and  _369
REMARK  153  A    between atoms: _368  and  _371
REMARK  154  A    between atoms: _371  and  _372
REMARK  155  A    between atoms: _375  and  _377
REMARK  156  A    between atoms: _377  and  _378
REMARK  157  A    between atoms: _377  and  _380
REMARK  158  A    between atoms: _383  and  _385
REMARK  159  A    between atoms: _385  and  _386
REMARK  160  A    between atoms: _385  and  _388
REMARK  161  A    between atoms: _388  and  _389
REMARK  162  A    between atoms: _392  and  _394
REMARK  163  A    between atoms: _394  and  _395
REMARK  164  A    between atoms: _394  and  _397
REMARK  165  A    between atoms: _397  and  _398
REMARK  166  A    between atoms: _398  and  _399
REMARK  167  A    between atoms: _399  and  _400
REMARK  168  A    between atoms: _400  and  _401
REMARK  169  A    between atoms: _405  and  _407
REMARK  170  A    between atoms: _407  and  _408
REMARK  171  A    between atoms: _407  and  _410
REMARK  172  A    between atoms: _410  and  _411
REMARK  173  A    between atoms: _414  and  _416
REMARK  174  A    between atoms: _416  and  _417
REMARK  175  A    between atoms: _419  and  _421
REMARK  176  A    between atoms: _421  and  _422
REMARK  177  A    between atoms: _424  and  _426
REMARK  178  A    between atoms: _426  and  _427
REMARK  179  A    between atoms: _426  and  _429
REMARK  180  A    between atoms: _429  and  _430
REMARK  181  A    between atoms: _433  and  _435
REMARK  182  A    between atoms: _435  and  _436
REMARK  183  A    between atoms: _438  and  _440
REMARK  184  A    between atoms: _440  and  _441
REMARK  185  A    between atoms: _443  and  _445
REMARK  186  A    between atoms: _445  and  _446
REMARK  187  A    between atoms: _445  and  _448
REMARK  188  A    between atoms: _448  and  _449
REMARK  189  A    between atoms: _455  and  _457
REMARK  190  A    between atoms: _457  and  _458
REMARK  191  A    between atoms: _457  and  _460
REMARK  192  A    between atoms: _460  and  _461
REMARK  193  A    between atoms: _464  and  _466
REMARK  194  A    between atoms: _466  and  _467
REMARK  195  A    between atoms: _466  and  _469
REMARK  196  A    between atoms: _472  and  _474
REMARK  197  A    between atoms: _474  and  _475
REMARK  198  A    between atoms: _474  and  _477
REMARK  199  A    between atoms: _477  and  _478
REMARK  200  A    between atoms: _482  and  _483
REMARK  201  A    between atoms: _488  and  _490
REMARK  202  A    between atoms: _490  and  _491
REMARK  203  A    between atoms: _490  and  _493
REMARK  204  A    between atoms: _493  and  _494
REMARK  205  A    between atoms: _498  and  _499
REMARK  206  A    between atoms: _504  and  _506
REMARK  207  A    between atoms: _506  and  _507
REMARK  208  A    between atoms: _506  and  _509
REMARK  209  A    between atoms: _512  and  _514
REMARK  210  A    between atoms: _514  and  _515
REMARK  211  A    between atoms: _514  and  _517
REMARK  212  A    between atoms: _517  and  _518
REMARK  213  A    between atoms: _523  and  _525
REMARK  214  A    between atoms: _525  and  _526
REMARK  215  A    between atoms: _525  and  _528
REMARK  216  A    between atoms: _528  and  _529
REMARK  217  A    between atoms: _532  and  _534
REMARK  218  A    between atoms: _534  and  _535
REMARK  219  A    between atoms: _534  and  _537
REMARK  220  A    between atoms: _537  and  _538
REMARK  221  A    between atoms: _541  and  _543
REMARK  222  A    between atoms: _543  and  _544
REMARK  223  A    between atoms: _546  and  _548
REMARK  224  A    between atoms: _548  and  _549
REMARK  225  A    between atoms: _548  and  _551
REMARK  226  A    between atoms: _551  and  _552
REMARK  227  A    between atoms: _552  and  _553
REMARK  228  A    between atoms: _553  and  _554
REMARK  229  A    between atoms: _563  and  _565
REMARK  230  A    between atoms: _565  and  _566
REMARK  231  A    between atoms: _565  and  _568
REMARK  232  A    between atoms: _568  and  _569
REMARK                            x       y       z     vdW  Elec       q    Type
REMARK                         _______ _______ _______ _____ _____    ______ ____
ROOT
ATOM      1  O   HOH     1       0.789  19.277  -4.680  0.00  0.00    +0.000 OA
ENDROOT
TORSDOF 0
REMARK  Name = ../refined-set-2016/1m0b/1m0b_pocket.pdb
REMARK  232 active torsions:
REMARK  status: ('A' for Active; 'I' for Inactive)
REMARK    1  A    between atoms: _1  and  _3
REMARK    2  A    between atoms: _3  and  _4
REMARK    3  A    between atoms: _3  and  _6
REMARK    4  A    between atoms: _6  and  _7
REMARK    5  A    between atoms: _7  and  _8
REMARK    6  A    between atoms: _8  and  _9
REMARK    7  A    between atoms: _18  and  _20
REMARK    8  A    between atoms: _20  and  _21
REMARK    9  A    between atoms: _20  and  _23
REMARK   10  A    between atoms: _23  and  _24
REMARK   11  A    between atoms: _27  and  _29
REMARK   12  A    between atoms: _29  and  _30
REMARK   13  A    between atoms: _29  and  _32
REMARK   14  A    between atoms: _32  and  _33
REMARK   15  A    between atoms: _36  and  _38
REMARK   16  A    between atoms: _38  and  _39
REMARK   17  A    between atoms: _38  and  _41
REMARK   18  A    between atoms: _41  and  _42
REMARK   19  A    between atoms: _45  and  _47
REMARK   20  A    between atoms: _47  and  _48
REMARK   21  A    between atoms: _47  and  _50
REMARK   22  A    between atoms: _50  and  _51
REMARK   23  A    between atoms: _54  and  _56
REMARK   24  A    between atoms: _56  and  _57
REMARK   25  A    between atoms: _59  and  _61
REMARK   26  A    between atoms: _61  and  _62
REMARK   27  A    between atoms: _65  and  _67
REMARK   28  A    between atoms: _67  and  _68
REMARK   29  A    between atoms: _67  and  _70
REMARK   30  A    between atoms: _70  and  _71
REMARK   31  A    between atoms: _74  and  _76
REMARK   32  A    between atoms: _76  and  _77
REMARK   33  A    between atoms: _76  and  _79
REMARK   34  A    between atoms: _79  and  _80
REMARK   35  A    between atoms: _83  and  _85
REMARK   36  A    between atoms: _85  and  _86
REMARK   37  A    between atoms: _85  and  _88
REMARK   38  A    between atoms: _88  and  _89
REMARK   39  A    between atoms: _92  and  _94
REMARK   40  A    between atoms: _94  and  _95
REMARK   41  A    between atoms: _94  and  _97
REMARK   42  A    between atoms: _100  and  _102
REMARK   43  A    between atoms: _102  and  _103
REMARK   44  A    between atoms: _102  and  _105
REMARK   45  A    between atoms: _105  and  _106
REMARK   46  A    between atoms: _106  and  _107
REMARK   47  A    between atoms: _107  and  _108
REMARK   48  A    between atoms: _108  and  _109
REMARK   49  A    between atoms: _113  and  _115
REMARK   50  A    between atoms: _115  and  _116
REMARK   51  A    between atoms: _115  and  _118
REMARK   52  A    between atoms: _118  and  _119
REMARK   53  A    between atoms: _119  and  _120
REMARK   54  A    between atoms: _122  and  _124
REMARK   55  A    between atoms: _124  and  _125
REMARK   56  A    between atoms: _124  and  _127
REMARK   57  A    between atoms: _127  and  _128
REMARK   58  A    between atoms: _131  and  _133
REMARK   59  A    between atoms: _133  and  _134
REMARK   60  A    between atoms: _136  and  _138
REMARK   61  A    between atoms: _138  and  _139
REMARK   62  A    between atoms: _141  and  _143
REMARK   63  A    between atoms: _143  and  _144
REMARK   64  A    between atoms: _143  and  _146
REMARK   65  A    between atoms: _146  and  _147
REMARK   66  A    between atoms: _150  and  _152
REMARK   67  A    between atoms: _152  and  _153
REMARK   68  A    between atoms: _155  and  _157
REMARK   69  A    between atoms: _157  and  _158
REMARK   70  A    between atoms: _160  and  _162
REMARK   71  A    between atoms: _162  and  _163
REMARK   72  A    between atoms: _162  and  _165
REMARK   73  A    between atoms: _165  and  _166
REMARK   74  A    between atoms: _172  and  _174
REMARK   75  A    between atoms: _174  and  _175
REMARK   76  A    between atoms: _174  and  _177
REMARK   77  A    between atoms: _177  and  _178
REMARK   78  A    between atoms: _181  and  _183
REMARK   79  A    between atoms: _183  and  _184
REMARK   80  A    between atoms: _183  and  _186
REMARK   81  A    between atoms: _189  and  _191
REMARK   82  A    between atoms: _191  and  _192
REMARK   83  A    between atoms: _191  and  _194
REMARK   84  A    between atoms: _194  and  _195
REMARK   85  A    between atoms: _198  and  _200
REMARK   86  A    between atoms: _200  and  _201
REMARK   87  A    between atoms: _200  and  _203
REMARK   88  A    between atoms: _203  and  _204
REMARK   89  A    between atoms: _208  and  _209
REMARK   90  A    between atoms: _214  and  _216
REMARK   91  A    between atoms: _216  and  _217
REMARK   92  A    between atoms: _216  and  _219
REMARK   93  A    between atoms: _222  and  _224
REMARK   94  A    between atoms: _224  and  _225
REMARK   95  A    between atoms: _224  and  _227
REMARK   96  A    between atoms: _227  and  _228
REMARK   97  A    between atoms: _233  and  _235
REMARK   98  A    between atoms: _235  and  _236
REMARK   99  A    between atoms: _235  and  _238
REMARK  100  A    between atoms: _238  and  _239
REMARK  101  A    between atoms: _242  and  _244
REMARK  102  A    between atoms: _244  and  _245
REMARK  103  A    between atoms: _244  and  _247
REMARK  104  A    between atoms: _247  and  _248
REMARK  105  A    between atoms: _251  and  _253
REMARK  106  A    between atoms: _253  and  _254
REMARK  107  A    between atoms: _256  and  _258
REMARK  108  A    between atoms: _258  and  _259
REMARK  109  A    between atoms: _258  and  _261
REMARK  110  A    between atoms: _261  and  _262
REMARK  111  A    between atoms: _262  and  _263
REMARK  112  A    between atoms: _263  and  _264
REMARK  113  A    between atoms: _273  and  _275
REMARK  114  A    between atoms: _275  and  _276
REMARK  115  A    between atoms: _275  and  _278
REMARK  116  A    between atoms: _278  and  _279
REMARK  117  A    between atoms: _284  and  _286
REMARK  118  A    between atoms: _286  and  _287
REMARK  119  A    between atoms: _286  and  _289
REMARK  120  A    between atoms: _289  and  _290
REMARK  121  A    between atoms: _290  and  _291
REMARK  122  A    between atoms: _291  and  _292
REMARK  123  A    between atoms: _301  and  _303
REMARK  124  A    between atoms: _303  and  _304
REMARK  125  A    between atoms: _303  and  _306
REMARK  126  A    between atoms: _306  and  _307
REMARK  127  A    between atoms: _310  and  _312
REMARK  128  A    between atoms: _312  and  _313
REMARK  129  A    between atoms: _312  and  _315
REMARK  130  A    between atoms: _315  and  _316
REMARK  131  A    between atoms: _319  and  _321
REMARK  132  A    between atoms: _321  and  _322
REMARK  133  A    between atoms: _321  and  _324
REMARK  134  A    between atoms: _324  and  _325
REMARK  135  A    between atoms: _328  and  _330
REMARK  136  A    between atoms: _330  and  _331
REMARK  137  A    between atoms: _330  and  _333
REMARK  138  A    between atoms: _333  and  _334
REMARK  139  A    between atoms: _337  and  _339
REMARK  140  A    between atoms: _339  and  _340
REMARK  141  A    between atoms: _342  and  _344
REMARK  142  A    between atoms: _344  and  _345
REMARK  143  A    between atoms: _348  and  _350
REMARK  144  A    between atoms: _350  and  _351
REMARK  145  A    between atoms: _350  and  _353
REMARK  146  A    between atoms: _353  and  _354
REMARK  147  A    between atoms: _357  and  _359
REMARK  148  A    between atoms: _359  and  _360
REMARK  149  A    between atoms: _359  and  _362
REMARK  150  A    between atoms: _362  and  _363
REMARK  151  A    between atoms: _366  and  _368
REMARK  152  A    between atoms: _368  and  _369
REMARK  153  A    between atoms: _368  and  _371
REMARK  154  A    between atoms: _371  and  _372
REMARK  155  A    between atoms: _375  and  _377
REMARK  156  A    between atoms: _377  and  _378
REMARK  157  A    between atoms: _377  and  _380
REMARK  158  A    between atoms: _383  and  _385
REMARK  159  A    between atoms: _385  and  _386
REMARK  160  A    between atoms: _385  and  _388
REMARK  161  A    between atoms: _388  and  _389
REMARK  162  A    between atoms: _392  and  _394
REMARK  163  A    between atoms: _394  and  _395
REMARK  164  A    between atoms: _394  and  _397
REMARK  165  A    between atoms: _397  and  _398
REMARK  166  A    between atoms: _398  and  _399
REMARK  167  A    between atoms: _399  and  _400
REMARK  168  A    between atoms: _400  and  _401
REMARK  169  A    between atoms: _405  and  _407
REMARK  170  A    between atoms: _407  and  _408
REMARK  171  A    between atoms: _407  and  _410
REMARK  172  A    between atoms: _410  and  _411
REMARK  173  A    between atoms: _414  and  _416
REMARK  174  A    between atoms: _416  and  _417
REMARK  175  A    between atoms: _419  and  _421
REMARK  176  A    between atoms: _421  and  _422
REMARK  177  A    between atoms: _424  and  _426
REMARK  178  A    between atoms: _426  and  _427
REMARK  179  A    between atoms: _426  and  _429
REMARK  180  A    between atoms: _429  and  _430
REMARK  181  A    between atoms: _433  and  _435
REMARK  182  A    between atoms: _435  and  _436
REMARK  183  A    between atoms: _438  and  _440
REMARK  184  A    between atoms: _440  and  _441
REMARK  185  A    between atoms: _443  and  _445
REMARK  186  A    between atoms: _445  and  _446
REMARK  187  A    between atoms: _445  and  _448
REMARK  188  A    between atoms: _448  and  _449
REMARK  189  A    between atoms: _455  and  _457
REMARK  190  A    between atoms: _457  and  _458
REMARK  191  A    between atoms: _457  and  _460
REMARK  192  A    between atoms: _460  and  _461
REMARK  193  A    between atoms: _464  and  _466
REMARK  194  A    between atoms: _466  and  _467
REMARK  195  A    between atoms: _466  and  _469
REMARK  196  A    between atoms: _472  and  _474
REMARK  197  A    between atoms: _474  and  _475
REMARK  198  A    between atoms: _474  and  _477
REMARK  199  A    between atoms: _477  and  _478
REMARK  200  A    between atoms: _482  and  _483
REMARK  201  A    between atoms: _488  and  _490
REMARK  202  A    between atoms: _490  and  _491
REMARK  203  A    between atoms: _490  and  _493
REMARK  204  A    between atoms: _493  and  _494
REMARK  205  A    between atoms: _498  and  _499
REMARK  206  A    between atoms: _504  and  _506
REMARK  207  A    between atoms: _506  and  _507
REMARK  208  A    between atoms: _506  and  _509
REMARK  209  A    between atoms: _512  and  _514
REMARK  210  A    between atoms: _514  and  _515
REMARK  211  A    between atoms: _514  and  _517
REMARK  212  A    between atoms: _517  and  _518
REMARK  213  A    between atoms: _523  and  _525
REMARK  214  A    between atoms: _525  and  _526
REMARK  215  A    between atoms: _525  and  _528
REMARK  216  A    between atoms: _528  and  _529
REMARK  217  A    between atoms: _532  and  _534
REMARK  218  A    between atoms: _534  and  _535
REMARK  219  A    between atoms: _534  and  _537
REMARK  220  A    between atoms: _537  and  _538
REMARK  221  A    between atoms: _541  and  _543
REMARK  222  A    between atoms: _543  and  _544
REMARK  223  A    between atoms: _546  and  _548
REMARK  224  A    between atoms: _548  and  _549
REMARK  225  A    between atoms: _548  and  _551
REMARK  226  A    between atoms: _551  and  _552
REMARK  227  A    between atoms: _552  and  _553
REMARK  228  A    between atoms: _553  and  _554
REMARK  229  A    between atoms: _563  and  _565
REMARK  230  A    between atoms: _565  and  _566
REMARK  231  A    between atoms: _565  and  _568
REMARK  232  A    between atoms: _568  and  _569
REMARK                            x       y       z     vdW  Elec       q    Type
REMARK                         _______ _______ _______ _____ _____    ______ ____
ROOT
ATOM      1  O   HOH     1     -16.328  16.559  11.777  0.00  0.00    +0.000 OA
ENDROOT
TORSDOF 0
REMARK  Name = ../refined-set-2016/1m0b/1m0b_pocket.pdb
REMARK  232 active torsions:
REMARK  status: ('A' for Active; 'I' for Inactive)
REMARK    1  A    between atoms: _1  and  _3
REMARK    2  A    between atoms: _3  and  _4
REMARK    3  A    between atoms: _3  and  _6
REMARK    4  A    between atoms: _6  and  _7
REMARK    5  A    between atoms: _7  and  _8
REMARK    6  A    between atoms: _8  and  _9
REMARK    7  A    between atoms: _18  and  _20
REMARK    8  A    between atoms: _20  and  _21
REMARK    9  A    between atoms: _20  and  _23
REMARK   10  A    between atoms: _23  and  _24
REMARK   11  A    between atoms: _27  and  _29
REMARK   12  A    between atoms: _29  and  _30
REMARK   13  A    between atoms: _29  and  _32
REMARK   14  A    between atoms: _32  and  _33
REMARK   15  A    between atoms: _36  and  _38
REMARK   16  A    between atoms: _38  and  _39
REMARK   17  A    between atoms: _38  and  _41
REMARK   18  A    between atoms: _41  and  _42
REMARK   19  A    between atoms: _45  and  _47
REMARK   20  A    between atoms: _47  and  _48
REMARK   21  A    between atoms: _47  and  _50
REMARK   22  A    between atoms: _50  and  _51
REMARK   23  A    between atoms: _54  and  _56
REMARK   24  A    between atoms: _56  and  _57
REMARK   25  A    between atoms: _59  and  _61
REMARK   26  A    between atoms: _61  and  _62
REMARK   27  A    between atoms: _65  and  _67
REMARK   28  A    between atoms: _67  and  _68
REMARK   29  A    between atoms: _67  and  _70
REMARK   30  A    between atoms: _70  and  _71
REMARK   31  A    between atoms: _74  and  _76
REMARK   32  A    between atoms: _76  and  _77
REMARK   33  A    between atoms: _76  and  _79
REMARK   34  A    between atoms: _79  and  _80
REMARK   35  A    between atoms: _83  and  _85
REMARK   36  A    between atoms: _85  and  _86
REMARK   37  A    between atoms: _85  and  _88
REMARK   38  A    between atoms: _88  and  _89
REMARK   39  A    between atoms: _92  and  _94
REMARK   40  A    between atoms: _94  and  _95
REMARK   41  A    between atoms: _94  and  _97
REMARK   42  A    between atoms: _100  and  _102
REMARK   43  A    between atoms: _102  and  _103
REMARK   44  A    between atoms: _102  and  _105
REMARK   45  A    between atoms: _105  and  _106
REMARK   46  A    between atoms: _106  and  _107
REMARK   47  A    between atoms: _107  and  _108
REMARK   48  A    between atoms: _108  and  _109
REMARK   49  A    between atoms: _113  and  _115
REMARK   50  A    between atoms: _115  and  _116
REMARK   51  A    between atoms: _115  and  _118
REMARK   52  A    between atoms: _118  and  _119
REMARK   53  A    between atoms: _119  and  _120
REMARK   54  A    between atoms: _122  and  _124
REMARK   55  A    between atoms: _124  and  _125
REMARK   56  A    between atoms: _124  and  _127
REMARK   57  A    between atoms: _127  and  _128
REMARK   58  A    between atoms: _131  and  _133
REMARK   59  A    between atoms: _133  and  _134
REMARK   60  A    between atoms: _136  and  _138
REMARK   61  A    between atoms: _138  and  _139
REMARK   62  A    between atoms: _141  and  _143
REMARK   63  A    between atoms: _143  and  _144
REMARK   64  A    between atoms: _143  and  _146
REMARK   65  A    between atoms: _146  and  _147
REMARK   66  A    between atoms: _150  and  _152
REMARK   67  A    between atoms: _152  and  _153
REMARK   68  A    between atoms: _155  and  _157
REMARK   69  A    between atoms: _157  and  _158
REMARK   70  A    between atoms: _160  and  _162
REMARK   71  A    between atoms: _162  and  _163
REMARK   72  A    between atoms: _162  and  _165
REMARK   73  A    between atoms: _165  and  _166
REMARK   74  A    between atoms: _172  and  _174
REMARK   75  A    between atoms: _174  and  _175
REMARK   76  A    between atoms: _174  and  _177
REMARK   77  A    between atoms: _177  and  _178
REMARK   78  A    between atoms: _181  and  _183
REMARK   79  A    between atoms: _183  and  _184
REMARK   80  A    between atoms: _183  and  _186
REMARK   81  A    between atoms: _189  and  _191
REMARK   82  A    between atoms: _191  and  _192
REMARK   83  A    between atoms: _191  and  _194
REMARK   84  A    between atoms: _194  and  _195
REMARK   85  A    between atoms: _198  and  _200
REMARK   86  A    between atoms: _200  and  _201
REMARK   87  A    between atoms: _200  and  _203
REMARK   88  A    between atoms: _203  and  _204
REMARK   89  A    between atoms: _208  and  _209
REMARK   90  A    between atoms: _214  and  _216
REMARK   91  A    between atoms: _216  and  _217
REMARK   92  A    between atoms: _216  and  _219
REMARK   93  A    between atoms: _222  and  _224
REMARK   94  A    between atoms: _224  and  _225
REMARK   95  A    between atoms: _224  and  _227
REMARK   96  A    between atoms: _227  and  _228
REMARK   97  A    between atoms: _233  and  _235
REMARK   98  A    between atoms: _235  and  _236
REMARK   99  A    between atoms: _235  and  _238
REMARK  100  A    between atoms: _238  and  _239
REMARK  101  A    between atoms: _242  and  _244
REMARK  102  A    between atoms: _244  and  _245
REMARK  103  A    between atoms: _244  and  _247
REMARK  104  A    between atoms: _247  and  _248
REMARK  105  A    between atoms: _251  and  _253
REMARK  106  A    between atoms: _253  and  _254
REMARK  107  A    between atoms: _256  and  _258
REMARK  108  A    between atoms: _258  and  _259
REMARK  109  A    between atoms: _258  and  _261
REMARK  110  A    between atoms: _261  and  _262
REMARK  111  A    between atoms: _262  and  _263
REMARK  112  A    between atoms: _263  and  _264
REMARK  113  A    between atoms: _273  and  _275
REMARK  114  A    between atoms: _275  and  _276
REMARK  115  A    between atoms: _275  and  _278
REMARK  116  A    between atoms: _278  and  _279
REMARK  117  A    between atoms: _284  and  _286
REMARK  118  A    between atoms: _286  and  _287
REMARK  119  A    between atoms: _286  and  _289
REMARK  120  A    between atoms: _289  and  _290
REMARK  121  A    between atoms: _290  and  _291
REMARK  122  A    between atoms: _291  and  _292
REMARK  123  A    between atoms: _301  and  _303
REMARK  124  A    between atoms: _303  and  _304
REMARK  125  A    between atoms: _303  and  _306
REMARK  126  A    between atoms: _306  and  _307
REMARK  127  A    between atoms: _310  and  _312
REMARK  128  A    between atoms: _312  and  _313
REMARK  129  A    between atoms: _312  and  _315
REMARK  130  A    between atoms: _315  and  _316
REMARK  131  A    between atoms: _319  and  _321
REMARK  132  A    between atoms: _321  and  _322
REMARK  133  A    between atoms: _321  and  _324
REMARK  134  A    between atoms: _324  and  _325
REMARK  135  A    between atoms: _328  and  _330
REMARK  136  A    between atoms: _330  and  _331
REMARK  137  A    between atoms: _330  and  _333
REMARK  138  A    between atoms: _333  and  _334
REMARK  139  A    between atoms: _337  and  _339
REMARK  140  A    between atoms: _339  and  _340
REMARK  141  A    between atoms: _342  and  _344
REMARK  142  A    between atoms: _344  and  _345
REMARK  143  A    between atoms: _348  and  _350
REMARK  144  A    between atoms: _350  and  _351
REMARK  145  A    between atoms: _350  and  _353
REMARK  146  A    between atoms: _353  and  _354
REMARK  147  A    between atoms: _357  and  _359
REMARK  148  A    between atoms: _359  and  _360
REMARK  149  A    between atoms: _359  and  _362
REMARK  150  A    between atoms: _362  and  _363
REMARK  151  A    between atoms: _366  and  _368
REMARK  152  A    between atoms: _368  and  _369
REMARK  153  A    between atoms: _368  and  _371
REMARK  154  A    between atoms: _371  and  _372
REMARK  155  A    between atoms: _375  and  _377
REMARK  156  A    between atoms: _377  and  _378
REMARK  157  A    between atoms: _377  and  _380
REMARK  158  A    between atoms: _383  and  _385
REMARK  159  A    between atoms: _385  and  _386
REMARK  160  A    between atoms: _385  and  _388
REMARK  161  A    between atoms: _388  and  _389
REMARK  162  A    between atoms: _392  and  _394
REMARK  163  A    between atoms: _394  and  _395
REMARK  164  A    between atoms: _394  and  _397
REMARK  165  A    between atoms: _397  and  _398
REMARK  166  A    between atoms: _398  and  _399
REMARK  167  A    between atoms: _399  and  _400
REMARK  168  A    between atoms: _400  and  _401
REMARK  169  A    between atoms: _405  and  _407
REMARK  170  A    between atoms: _407  and  _408
REMARK  171  A    between atoms: _407  and  _410
REMARK  172  A    between atoms: _410  and  _411
REMARK  173  A    between atoms: _414  and  _416
REMARK  174  A    between atoms: _416  and  _417
REMARK  175  A    between atoms: _419  and  _421
REMARK  176  A    between atoms: _421  and  _422
REMARK  177  A    between atoms: _424  and  _426
REMARK  178  A    between atoms: _426  and  _427
REMARK  179  A    between atoms: _426  and  _429
REMARK  180  A    between atoms: _429  and  _430
REMARK  181  A    between atoms: _433  and  _435
REMARK  182  A    between atoms: _435  and  _436
REMARK  183  A    between atoms: _438  and  _440
REMARK  184  A    between atoms: _440  and  _441
REMARK  185  A    between atoms: _443  and  _445
REMARK  186  A    between atoms: _445  and  _446
REMARK  187  A    between atoms: _445  and  _448
REMARK  188  A    between atoms: _448  and  _449
REMARK  189  A    between atoms: _455  and  _457
REMARK  190  A    between atoms: _457  and  _458
REMARK  191  A    between atoms: _457  and  _460
REMARK  192  A    between atoms: _460  and  _461
REMARK  193  A    between atoms: _464  and  _466
REMARK  194  A    between atoms: _466  and  _467
REMARK  195  A    between atoms: _466  and  _469
REMARK  196  A    between atoms: _472  and  _474
REMARK  197  A    between atoms: _474  and  _475
REMARK  198  A    between atoms: _474  and  _477
REMARK  199  A    between atoms: _477  and  _478
REMARK  200  A    between atoms: _482  and  _483
REMARK  201  A    between atoms: _488  and  _490
REMARK  202  A    between atoms: _490  and  _491
REMARK  203  A    between atoms: _490  and  _493
REMARK  204  A    between atoms: _493  and  _494
REMARK  205  A    between atoms: _498  and  _499
REMARK  206  A    between atoms: _504  and  _506
REMARK  207  A    between atoms: _506  and  _507
REMARK  208  A    between atoms: _506  and  _509
REMARK  209  A    between atoms: _512  and  _514
REMARK  210  A    between atoms: _514  and  _515
REMARK  211  A    between atoms: _514  and  _517
REMARK  212  A    between atoms: _517  and  _518
REMARK  213  A    between atoms: _523  and  _525
REMARK  214  A    between atoms: _525  and  _526
REMARK  215  A    between atoms: _525  and  _528
REMARK  216  A    between atoms: _528  and  _529
REMARK  217  A    between atoms: _532  and  _534
REMARK  218  A    between atoms: _534  and  _535
REMARK  219  A    between atoms: _534  and  _537
REMARK  220  A    between atoms: _537  and  _538
REMARK  221  A    between atoms: _541  and  _543
REMARK  222  A    between atoms: _543  and  _544
REMARK  223  A    between atoms: _546  and  _548
REMARK  224  A    between atoms: _548  and  _549
REMARK  225  A    between atoms: _548  and  _551
REMARK  226  A    between atoms: _551  and  _552
REMARK  227  A    between atoms: _552  and  _553
REMARK  228  A    between atoms: _553  and  _554
REMARK  229  A    between atoms: _563  and  _565
REMARK  230  A    between atoms: _565  and  _566
REMARK  231  A    between atoms: _565  and  _568
REMARK  232  A    between atoms: _568  and  _569
REMARK                            x       y       z     vdW  Elec       q    Type
REMARK                         _______ _______ _______ _____ _____    ______ ____
ROOT
ATOM      1  O   HOH     1     -11.194  18.259  14.119  0.00  0.00    +0.000 OA
ENDROOT
TORSDOF 0
REMARK  Name = ../refined-set-2016/1m0b/1m0b_pocket.pdb
REMARK  232 active torsions:
REMARK  status: ('A' for Active; 'I' for Inactive)
REMARK    1  A    between atoms: _1  and  _3
REMARK    2  A    between atoms: _3  and  _4
REMARK    3  A    between atoms: _3  and  _6
REMARK    4  A    between atoms: _6  and  _7
REMARK    5  A    between atoms: _7  and  _8
REMARK    6  A    between atoms: _8  and  _9
REMARK    7  A    between atoms: _18  and  _20
REMARK    8  A    between atoms: _20  and  _21
REMARK    9  A    between atoms: _20  and  _23
REMARK   10  A    between atoms: _23  and  _24
REMARK   11  A    between atoms: _27  and  _29
REMARK   12  A    between atoms: _29  and  _30
REMARK   13  A    between atoms: _29  and  _32
REMARK   14  A    between atoms: _32  and  _33
REMARK   15  A    between atoms: _36  and  _38
REMARK   16  A    between atoms: _38  and  _39
REMARK   17  A    between atoms: _38  and  _41
REMARK   18  A    between atoms: _41  and  _42
REMARK   19  A    between atoms: _45  and  _47
REMARK   20  A    between atoms: _47  and  _48
REMARK   21  A    between atoms: _47  and  _50
REMARK   22  A    between atoms: _50  and  _51
REMARK   23  A    between atoms: _54  and  _56
REMARK   24  A    between atoms: _56  and  _57
REMARK   25  A    between atoms: _59  and  _61
REMARK   26  A    between atoms: _61  and  _62
REMARK   27  A    between atoms: _65  and  _67
REMARK   28  A    between atoms: _67  and  _68
REMARK   29  A    between atoms: _67  and  _70
REMARK   30  A    between atoms: _70  and  _71
REMARK   31  A    between atoms: _74  and  _76
REMARK   32  A    between atoms: _76  and  _77
REMARK   33  A    between atoms: _76  and  _79
REMARK   34  A    between atoms: _79  and  _80
REMARK   35  A    between atoms: _83  and  _85
REMARK   36  A    between atoms: _85  and  _86
REMARK   37  A    between atoms: _85  and  _88
REMARK   38  A    between atoms: _88  and  _89
REMARK   39  A    between atoms: _92  and  _94
REMARK   40  A    between atoms: _94  and  _95
REMARK   41  A    between atoms: _94  and  _97
REMARK   42  A    between atoms: _100  and  _102
REMARK   43  A    between atoms: _102  and  _103
REMARK   44  A    between atoms: _102  and  _105
REMARK   45  A    between atoms: _105  and  _106
REMARK   46  A    between atoms: _106  and  _107
REMARK   47  A    between atoms: _107  and  _108
REMARK   48  A    between atoms: _108  and  _109
REMARK   49  A    between atoms: _113  and  _115
REMARK   50  A    between atoms: _115  and  _116
REMARK   51  A    between atoms: _115  and  _118
REMARK   52  A    between atoms: _118  and  _119
REMARK   53  A    between atoms: _119  and  _120
REMARK   54  A    between atoms: _122  and  _124
REMARK   55  A    between atoms: _124  and  _125
REMARK   56  A    between atoms: _124  and  _127
REMARK   57  A    between atoms: _127  and  _128
REMARK   58  A    between atoms: _131  and  _133
REMARK   59  A    between atoms: _133  and  _134
REMARK   60  A    between atoms: _136  and  _138
REMARK   61  A    between atoms: _138  and  _139
REMARK   62  A    between atoms: _141  and  _143
REMARK   63  A    between atoms: _143  and  _144
REMARK   64  A    between atoms: _143  and  _146
REMARK   65  A    between atoms: _146  and  _147
REMARK   66  A    between atoms: _150  and  _152
REMARK   67  A    between atoms: _152  and  _153
REMARK   68  A    between atoms: _155  and  _157
REMARK   69  A    between atoms: _157  and  _158
REMARK   70  A    between atoms: _160  and  _162
REMARK   71  A    between atoms: _162  and  _163
REMARK   72  A    between atoms: _162  and  _165
REMARK   73  A    between atoms: _165  and  _166
REMARK   74  A    between atoms: _172  and  _174
REMARK   75  A    between atoms: _174  and  _175
REMARK   76  A    between atoms: _174  and  _177
REMARK   77  A    between atoms: _177  and  _178
REMARK   78  A    between atoms: _181  and  _183
REMARK   79  A    between atoms: _183  and  _184
REMARK   80  A    between atoms: _183  and  _186
REMARK   81  A    between atoms: _189  and  _191
REMARK   82  A    between atoms: _191  and  _192
REMARK   83  A    between atoms: _191  and  _194
REMARK   84  A    between atoms: _194  and  _195
REMARK   85  A    between atoms: _198  and  _200
REMARK   86  A    between atoms: _200  and  _201
REMARK   87  A    between atoms: _200  and  _203
REMARK   88  A    between atoms: _203  and  _204
REMARK   89  A    between atoms: _208  and  _209
REMARK   90  A    between atoms: _214  and  _216
REMARK   91  A    between atoms: _216  and  _217
REMARK   92  A    between atoms: _216  and  _219
REMARK   93  A    between atoms: _222  and  _224
REMARK   94  A    between atoms: _224  and  _225
REMARK   95  A    between atoms: _224  and  _227
REMARK   96  A    between atoms: _227  and  _228
REMARK   97  A    between atoms: _233  and  _235
REMARK   98  A    between atoms: _235  and  _236
REMARK   99  A    between atoms: _235  and  _238
REMARK  100  A    between atoms: _238  and  _239
REMARK  101  A    between atoms: _242  and  _244
REMARK  102  A    between atoms: _244  and  _245
REMARK  103  A    between atoms: _244  and  _247
REMARK  104  A    between atoms: _247  and  _248
REMARK  105  A    between atoms: _251  and  _253
REMARK  106  A    between atoms: _253  and  _254
REMARK  107  A    between atoms: _256  and  _258
REMARK  108  A    between atoms: _258  and  _259
REMARK  109  A    between atoms: _258  and  _261
REMARK  110  A    between atoms: _261  and  _262
REMARK  111  A    between atoms: _262  and  _263
REMARK  112  A    between atoms: _263  and  _264
REMARK  113  A    between atoms: _273  and  _275
REMARK  114  A    between atoms: _275  and  _276
REMARK  115  A    between atoms: _275  and  _278
REMARK  116  A    between atoms: _278  and  _279
REMARK  117  A    between atoms: _284  and  _286
REMARK  118  A    between atoms: _286  and  _287
REMARK  119  A    between atoms: _286  and  _289
REMARK  120  A    between atoms: _289  and  _290
REMARK  121  A    between atoms: _290  and  _291
REMARK  122  A    between atoms: _291  and  _292
REMARK  123  A    between atoms: _301  and  _303
REMARK  124  A    between atoms: _303  and  _304
REMARK  125  A    between atoms: _303  and  _306
REMARK  126  A    between atoms: _306  and  _307
REMARK  127  A    between atoms: _310  and  _312
REMARK  128  A    between atoms: _312  and  _313
REMARK  129  A    between atoms: _312  and  _315
REMARK  130  A    between atoms: _315  and  _316
REMARK  131  A    between atoms: _319  and  _321
REMARK  132  A    between atoms: _321  and  _322
REMARK  133  A    between atoms: _321  and  _324
REMARK  134  A    between atoms: _324  and  _325
REMARK  135  A    between atoms: _328  and  _330
REMARK  136  A    between atoms: _330  and  _331
REMARK  137  A    between atoms: _330  and  _333
REMARK  138  A    between atoms: _333  and  _334
REMARK  139  A    between atoms: _337  and  _339
REMARK  140  A    between atoms: _339  and  _340
REMARK  141  A    between atoms: _342  and  _344
REMARK  142  A    between atoms: _344  and  _345
REMARK  143  A    between atoms: _348  and  _350
REMARK  144  A    between atoms: _350  and  _351
REMARK  145  A    between atoms: _350  and  _353
REMARK  146  A    between atoms: _353  and  _354
REMARK  147  A    between atoms: _357  and  _359
REMARK  148  A    between atoms: _359  and  _360
REMARK  149  A    between atoms: _359  and  _362
REMARK  150  A    between atoms: _362  and  _363
REMARK  151  A    between atoms: _366  and  _368
REMARK  152  A    between atoms: _368  and  _369
REMARK  153  A    between atoms: _368  and  _371
REMARK  154  A    between atoms: _371  and  _372
REMARK  155  A    between atoms: _375  and  _377
REMARK  156  A    between atoms: _377  and  _378
REMARK  157  A    between atoms: _377  and  _380
REMARK  158  A    between atoms: _383  and  _385
REMARK  159  A    between atoms: _385  and  _386
REMARK  160  A    between atoms: _385  and  _388
REMARK  161  A    between atoms: _388  and  _389
REMARK  162  A    between atoms: _392  and  _394
REMARK  163  A    between atoms: _394  and  _395
REMARK  164  A    between atoms: _394  and  _397
REMARK  165  A    between atoms: _397  and  _398
REMARK  166  A    between atoms: _398  and  _399
REMARK  167  A    between atoms: _399  and  _400
REMARK  168  A    between atoms: _400  and  _401
REMARK  169  A    between atoms: _405  and  _407
REMARK  170  A    between atoms: _407  and  _408
REMARK  171  A    between atoms: _407  and  _410
REMARK  172  A    between atoms: _410  and  _411
REMARK  173  A    between atoms: _414  and  _416
REMARK  174  A    between atoms: _416  and  _417
REMARK  175  A    between atoms: _419  and  _421
REMARK  176  A    between atoms: _421  and  _422
REMARK  177  A    between atoms: _424  and  _426
REMARK  178  A    between atoms: _426  and  _427
REMARK  179  A    between atoms: _426  and  _429
REMARK  180  A    between atoms: _429  and  _430
REMARK  181  A    between atoms: _433  and  _435
REMARK  182  A    between atoms: _435  and  _436
REMARK  183  A    between atoms: _438  and  _440
REMARK  184  A    between atoms: _440  and  _441
REMARK  185  A    between atoms: _443  and  _445
REMARK  186  A    between atoms: _445  and  _446
REMARK  187  A    between atoms: _445  and  _448
REMARK  188  A    between atoms: _448  and  _449
REMARK  189  A    between atoms: _455  and  _457
REMARK  190  A    between atoms: _457  and  _458
REMARK  191  A    between atoms: _457  and  _460
REMARK  192  A    between atoms: _460  and  _461
REMARK  193  A    between atoms: _464  and  _466
REMARK  194  A    between atoms: _466  and  _467
REMARK  195  A    between atoms: _466  and  _469
REMARK  196  A    between atoms: _472  and  _474
REMARK  197  A    between atoms: _474  and  _475
REMARK  198  A    between atoms: _474  and  _477
REMARK  199  A    between atoms: _477  and  _478
REMARK  200  A    between atoms: _482  and  _483
REMARK  201  A    between atoms: _488  and  _490
REMARK  202  A    between atoms: _490  and  _491
REMARK  203  A    between atoms: _490  and  _493
REMARK  204  A    between atoms: _493  and  _494
REMARK  205  A    between atoms: _498  and  _499
REMARK  206  A    between atoms: _504  and  _506
REMARK  207  A    between atoms: _506  and  _507
REMARK  208  A    between atoms: _506  and  _509
REMARK  209  A    between atoms: _512  and  _514
REMARK  210  A    between atoms: _514  and  _515
REMARK  211  A    between atoms: _514  and  _517
REMARK  212  A    between atoms: _517  and  _518
REMARK  213  A    between atoms: _523  and  _525
REMARK  214  A    between atoms: _525  and  _526
REMARK  215  A    between atoms: _525  and  _528
REMARK  216  A    between atoms: _528  and  _529
REMARK  217  A    between atoms: _532  and  _534
REMARK  218  A    between atoms: _534  and  _535
REMARK  219  A    between atoms: _534  and  _537
REMARK  220  A    between atoms: _537  and  _538
REMARK  221  A    between atoms: _541  and  _543
REMARK  222  A    between atoms: _543  and  _544
REMARK  223  A    between atoms: _546  and  _548
REMARK  224  A    between atoms: _548  and  _549
REMARK  225  A    between atoms: _548  and  _551
REMARK  226  A    between atoms: _551  and  _552
REMARK  227  A    between atoms: _552  and  _553
REMARK  228  A    between atoms: _553  and  _554
REMARK  229  A    between atoms: _563  and  _565
REMARK  230  A    between atoms: _565  and  _566
REMARK  231  A    between atoms: _565  and  _568
REMARK  232  A    between atoms: _568  and  _569
REMARK                            x       y       z     vdW  Elec       q    Type
REMARK                         _______ _______ _______ _____ _____    ______ ____
ROOT
ATOM      1  O   HOH     1     -13.389  13.773  13.688  0.00  0.00    +0.000 OA
ENDROOT
TORSDOF 0
REMARK  Name = ../refined-set-2016/1m0b/1m0b_pocket.pdb
REMARK  232 active torsions:
REMARK  status: ('A' for Active; 'I' for Inactive)
REMARK    1  A    between atoms: _1  and  _3
REMARK    2  A    between atoms: _3  and  _4
REMARK    3  A    between atoms: _3  and  _6
REMARK    4  A    between atoms: _6  and  _7
REMARK    5  A    between atoms: _7  and  _8
REMARK    6  A    between atoms: _8  and  _9
REMARK    7  A    between atoms: _18  and  _20
REMARK    8  A    between atoms: _20  and  _21
REMARK    9  A    between atoms: _20  and  _23
REMARK   10  A    between atoms: _23  and  _24
REMARK   11  A    between atoms: _27  and  _29
REMARK   12  A    between atoms: _29  and  _30
REMARK   13  A    between atoms: _29  and  _32
REMARK   14  A    between atoms: _32  and  _33
REMARK   15  A    between atoms: _36  and  _38
REMARK   16  A    between atoms: _38  and  _39
REMARK   17  A    between atoms: _38  and  _41
REMARK   18  A    between atoms: _41  and  _42
REMARK   19  A    between atoms: _45  and  _47
REMARK   20  A    between atoms: _47  and  _48
REMARK   21  A    between atoms: _47  and  _50
REMARK   22  A    between atoms: _50  and  _51
REMARK   23  A    between atoms: _54  and  _56
REMARK   24  A    between atoms: _56  and  _57
REMARK   25  A    between atoms: _59  and  _61
REMARK   26  A    between atoms: _61  and  _62
REMARK   27  A    between atoms: _65  and  _67
REMARK   28  A    between atoms: _67  and  _68
REMARK   29  A    between atoms: _67  and  _70
REMARK   30  A    between atoms: _70  and  _71
REMARK   31  A    between atoms: _74  and  _76
REMARK   32  A    between atoms: _76  and  _77
REMARK   33  A    between atoms: _76  and  _79
REMARK   34  A    between atoms: _79  and  _80
REMARK   35  A    between atoms: _83  and  _85
REMARK   36  A    between atoms: _85  and  _86
REMARK   37  A    between atoms: _85  and  _88
REMARK   38  A    between atoms: _88  and  _89
REMARK   39  A    between atoms: _92  and  _94
REMARK   40  A    between atoms: _94  and  _95
REMARK   41  A    between atoms: _94  and  _97
REMARK   42  A    between atoms: _100  and  _102
REMARK   43  A    between atoms: _102  and  _103
REMARK   44  A    between atoms: _102  and  _105
REMARK   45  A    between atoms: _105  and  _106
REMARK   46  A    between atoms: _106  and  _107
REMARK   47  A    between atoms: _107  and  _108
REMARK   48  A    between atoms: _108  and  _109
REMARK   49  A    between atoms: _113  and  _115
REMARK   50  A    between atoms: _115  and  _116
REMARK   51  A    between atoms: _115  and  _118
REMARK   52  A    between atoms: _118  and  _119
REMARK   53  A    between atoms: _119  and  _120
REMARK   54  A    between atoms: _122  and  _124
REMARK   55  A    between atoms: _124  and  _125
REMARK   56  A    between atoms: _124  and  _127
REMARK   57  A    between atoms: _127  and  _128
REMARK   58  A    between atoms: _131  and  _133
REMARK   59  A    between atoms: _133  and  _134
REMARK   60  A    between atoms: _136  and  _138
REMARK   61  A    between atoms: _138  and  _139
REMARK   62  A    between atoms: _141  and  _143
REMARK   63  A    between atoms: _143  and  _144
REMARK   64  A    between atoms: _143  and  _146
REMARK   65  A    between atoms: _146  and  _147
REMARK   66  A    between atoms: _150  and  _152
REMARK   67  A    between atoms: _152  and  _153
REMARK   68  A    between atoms: _155  and  _157
REMARK   69  A    between atoms: _157  and  _158
REMARK   70  A    between atoms: _160  and  _162
REMARK   71  A    between atoms: _162  and  _163
REMARK   72  A    between atoms: _162  and  _165
REMARK   73  A    between atoms: _165  and  _166
REMARK   74  A    between atoms: _172  and  _174
REMARK   75  A    between atoms: _174  and  _175
REMARK   76  A    between atoms: _174  and  _177
REMARK   77  A    between atoms: _177  and  _178
REMARK   78  A    between atoms: _181  and  _183
REMARK   79  A    between atoms: _183  and  _184
REMARK   80  A    between atoms: _183  and  _186
REMARK   81  A    between atoms: _189  and  _191
REMARK   82  A    between atoms: _191  and  _192
REMARK   83  A    between atoms: _191  and  _194
REMARK   84  A    between atoms: _194  and  _195
REMARK   85  A    between atoms: _198  and  _200
REMARK   86  A    between atoms: _200  and  _201
REMARK   87  A    between atoms: _200  and  _203
REMARK   88  A    between atoms: _203  and  _204
REMARK   89  A    between atoms: _208  and  _209
REMARK   90  A    between atoms: _214  and  _216
REMARK   91  A    between atoms: _216  and  _217
REMARK   92  A    between atoms: _216  and  _219
REMARK   93  A    between atoms: _222  and  _224
REMARK   94  A    between atoms: _224  and  _225
REMARK   95  A    between atoms: _224  and  _227
REMARK   96  A    between atoms: _227  and  _228
REMARK   97  A    between atoms: _233  and  _235
REMARK   98  A    between atoms: _235  and  _236
REMARK   99  A    between atoms: _235  and  _238
REMARK  100  A    between atoms: _238  and  _239
REMARK  101  A    between atoms: _242  and  _244
REMARK  102  A    between atoms: _244  and  _245
REMARK  103  A    between atoms: _244  and  _247
REMARK  104  A    between atoms: _247  and  _248
REMARK  105  A    between atoms: _251  and  _253
REMARK  106  A    between atoms: _253  and  _254
REMARK  107  A    between atoms: _256  and  _258
REMARK  108  A    between atoms: _258  and  _259
REMARK  109  A    between atoms: _258  and  _261
REMARK  110  A    between atoms: _261  and  _262
REMARK  111  A    between atoms: _262  and  _263
REMARK  112  A    between atoms: _263  and  _264
REMARK  113  A    between atoms: _273  and  _275
REMARK  114  A    between atoms: _275  and  _276
REMARK  115  A    between atoms: _275  and  _278
REMARK  116  A    between atoms: _278  and  _279
REMARK  117  A    between atoms: _284  and  _286
REMARK  118  A    between atoms: _286  and  _287
REMARK  119  A    between atoms: _286  and  _289
REMARK  120  A    between atoms: _289  and  _290
REMARK  121  A    between atoms: _290  and  _291
REMARK  122  A    between atoms: _291  and  _292
REMARK  123  A    between atoms: _301  and  _303
REMARK  124  A    between atoms: _303  and  _304
REMARK  125  A    between atoms: _303  and  _306
REMARK  126  A    between atoms: _306  and  _307
REMARK  127  A    between atoms: _310  and  _312
REMARK  128  A    between atoms: _312  and  _313
REMARK  129  A    between atoms: _312  and  _315
REMARK  130  A    between atoms: _315  and  _316
REMARK  131  A    between atoms: _319  and  _321
REMARK  132  A    between atoms: _321  and  _322
REMARK  133  A    between atoms: _321  and  _324
REMARK  134  A    between atoms: _324  and  _325
REMARK  135  A    between atoms: _328  and  _330
REMARK  136  A    between atoms: _330  and  _331
REMARK  137  A    between atoms: _330  and  _333
REMARK  138  A    between atoms: _333  and  _334
REMARK  139  A    between atoms: _337  and  _339
REMARK  140  A    between atoms: _339  and  _340
REMARK  141  A    between atoms: _342  and  _344
REMARK  142  A    between atoms: _344  and  _345
REMARK  143  A    between atoms: _348  and  _350
REMARK  144  A    between atoms: _350  and  _351
REMARK  145  A    between atoms: _350  and  _353
REMARK  146  A    between atoms: _353  and  _354
REMARK  147  A    between atoms: _357  and  _359
REMARK  148  A    between atoms: _359  and  _360
REMARK  149  A    between atoms: _359  and  _362
REMARK  150  A    between atoms: _362  and  _363
REMARK  151  A    between atoms: _366  and  _368
REMARK  152  A    between atoms: _368  and  _369
REMARK  153  A    between atoms: _368  and  _371
REMARK  154  A    between atoms: _371  and  _372
REMARK  155  A    between atoms: _375  and  _377
REMARK  156  A    between atoms: _377  and  _378
REMARK  157  A    between atoms: _377  and  _380
REMARK  158  A    between atoms: _383  and  _385
REMARK  159  A    between atoms: _385  and  _386
REMARK  160  A    between atoms: _385  and  _388
REMARK  161  A    between atoms: _388  and  _389
REMARK  162  A    between atoms: _392  and  _394
REMARK  163  A    between atoms: _394  and  _395
REMARK  164  A    between atoms: _394  and  _397
REMARK  165  A    between atoms: _397  and  _398
REMARK  166  A    between atoms: _398  and  _399
REMARK  167  A    between atoms: _399  and  _400
REMARK  168  A    between atoms: _400  and  _401
REMARK  169  A    between atoms: _405  and  _407
REMARK  170  A    between atoms: _407  and  _408
REMARK  171  A    between atoms: _407  and  _410
REMARK  172  A    between atoms: _410  and  _411
REMARK  173  A    between atoms: _414  and  _416
REMARK  174  A    between atoms: _416  and  _417
REMARK  175  A    between atoms: _419  and  _421
REMARK  176  A    between atoms: _421  and  _422
REMARK  177  A    between atoms: _424  and  _426
REMARK  178  A    between atoms: _426  and  _427
REMARK  179  A    between atoms: _426  and  _429
REMARK  180  A    between atoms: _429  and  _430
REMARK  181  A    between atoms: _433  and  _435
REMARK  182  A    between atoms: _435  and  _436
REMARK  183  A    between atoms: _438  and  _440
REMARK  184  A    between atoms: _440  and  _441
REMARK  185  A    between atoms: _443  and  _445
REMARK  186  A    between atoms: _445  and  _446
REMARK  187  A    between atoms: _445  and  _448
REMARK  188  A    between atoms: _448  and  _449
REMARK  189  A    between atoms: _455  and  _457
REMARK  190  A    between atoms: _457  and  _458
REMARK  191  A    between atoms: _457  and  _460
REMARK  192  A    between atoms: _460  and  _461
REMARK  193  A    between atoms: _464  and  _466
REMARK  194  A    between atoms: _466  and  _467
REMARK  195  A    between atoms: _466  and  _469
REMARK  196  A    between atoms: _472  and  _474
REMARK  197  A    between atoms: _474  and  _475
REMARK  198  A    between atoms: _474  and  _477
REMARK  199  A    between atoms: _477  and  _478
REMARK  200  A    between atoms: _482  and  _483
REMARK  201  A    between atoms: _488  and  _490
REMARK  202  A    between atoms: _490  and  _491
REMARK  203  A    between atoms: _490  and  _493
REMARK  204  A    between atoms: _493  and  _494
REMARK  205  A    between atoms: _498  and  _499
REMARK  206  A    between atoms: _504  and  _506
REMARK  207  A    between atoms: _506  and  _507
REMARK  208  A    between atoms: _506  and  _509
REMARK  209  A    between atoms: _512  and  _514
REMARK  210  A    between atoms: _514  and  _515
REMARK  211  A    between atoms: _514  and  _517
REMARK  212  A    between atoms: _517  and  _518
REMARK  213  A    between atoms: _523  and  _525
REMARK  214  A    between atoms: _525  and  _526
REMARK  215  A    between atoms: _525  and  _528
REMARK  216  A    between atoms: _528  and  _529
REMARK  217  A    between atoms: _532  and  _534
REMARK  218  A    between atoms: _534  and  _535
REMARK  219  A    between atoms: _534  and  _537
REMARK  220  A    between atoms: _537  and  _538
REMARK  221  A    between atoms: _541  and  _543
REMARK  222  A    between atoms: _543  and  _544
REMARK  223  A    between atoms: _546  and  _548
REMARK  224  A    between atoms: _548  and  _549
REMARK  225  A    between atoms: _548  and  _551
REMARK  226  A    between atoms: _551  and  _552
REMARK  227  A    between atoms: _552  and  _553
REMARK  228  A    between atoms: _553  and  _554
REMARK  229  A    between atoms: _563  and  _565
REMARK  230  A    between atoms: _565  and  _566
REMARK  231  A    between atoms: _565  and  _568
REMARK  232  A    between atoms: _568  and  _569
REMARK                            x       y       z     vdW  Elec       q    Type
REMARK                         _______ _______ _______ _____ _____    ______ ____
ROOT
ATOM      1  O   HOH     1      -7.775  13.549  -0.005  0.00  0.00    +0.000 OA
ENDROOT
TORSDOF 0
REMARK  Name = ../refined-set-2016/1m0b/1m0b_pocket.pdb
REMARK  232 active torsions:
REMARK  status: ('A' for Active; 'I' for Inactive)
REMARK    1  A    between atoms: _1  and  _3
REMARK    2  A    between atoms: _3  and  _4
REMARK    3  A    between atoms: _3  and  _6
REMARK    4  A    between atoms: _6  and  _7
REMARK    5  A    between atoms: _7  and  _8
REMARK    6  A    between atoms: _8  and  _9
REMARK    7  A    between atoms: _18  and  _20
REMARK    8  A    between atoms: _20  and  _21
REMARK    9  A    between atoms: _20  and  _23
REMARK   10  A    between atoms: _23  and  _24
REMARK   11  A    between atoms: _27  and  _29
REMARK   12  A    between atoms: _29  and  _30
REMARK   13  A    between atoms: _29  and  _32
REMARK   14  A    between atoms: _32  and  _33
REMARK   15  A    between atoms: _36  and  _38
REMARK   16  A    between atoms: _38  and  _39
REMARK   17  A    between atoms: _38  and  _41
REMARK   18  A    between atoms: _41  and  _42
REMARK   19  A    between atoms: _45  and  _47
REMARK   20  A    between atoms: _47  and  _48
REMARK   21  A    between atoms: _47  and  _50
REMARK   22  A    between atoms: _50  and  _51
REMARK   23  A    between atoms: _54  and  _56
REMARK   24  A    between atoms: _56  and  _57
REMARK   25  A    between atoms: _59  and  _61
REMARK   26  A    between atoms: _61  and  _62
REMARK   27  A    between atoms: _65  and  _67
REMARK   28  A    between atoms: _67  and  _68
REMARK   29  A    between atoms: _67  and  _70
REMARK   30  A    between atoms: _70  and  _71
REMARK   31  A    between atoms: _74  and  _76
REMARK   32  A    between atoms: _76  and  _77
REMARK   33  A    between atoms: _76  and  _79
REMARK   34  A    between atoms: _79  and  _80
REMARK   35  A    between atoms: _83  and  _85
REMARK   36  A    between atoms: _85  and  _86
REMARK   37  A    between atoms: _85  and  _88
REMARK   38  A    between atoms: _88  and  _89
REMARK   39  A    between atoms: _92  and  _94
REMARK   40  A    between atoms: _94  and  _95
REMARK   41  A    between atoms: _94  and  _97
REMARK   42  A    between atoms: _100  and  _102
REMARK   43  A    between atoms: _102  and  _103
REMARK   44  A    between atoms: _102  and  _105
REMARK   45  A    between atoms: _105  and  _106
REMARK   46  A    between atoms: _106  and  _107
REMARK   47  A    between atoms: _107  and  _108
REMARK   48  A    between atoms: _108  and  _109
REMARK   49  A    between atoms: _113  and  _115
REMARK   50  A    between atoms: _115  and  _116
REMARK   51  A    between atoms: _115  and  _118
REMARK   52  A    between atoms: _118  and  _119
REMARK   53  A    between atoms: _119  and  _120
REMARK   54  A    between atoms: _122  and  _124
REMARK   55  A    between atoms: _124  and  _125
REMARK   56  A    between atoms: _124  and  _127
REMARK   57  A    between atoms: _127  and  _128
REMARK   58  A    between atoms: _131  and  _133
REMARK   59  A    between atoms: _133  and  _134
REMARK   60  A    between atoms: _136  and  _138
REMARK   61  A    between atoms: _138  and  _139
REMARK   62  A    between atoms: _141  and  _143
REMARK   63  A    between atoms: _143  and  _144
REMARK   64  A    between atoms: _143  and  _146
REMARK   65  A    between atoms: _146  and  _147
REMARK   66  A    between atoms: _150  and  _152
REMARK   67  A    between atoms: _152  and  _153
REMARK   68  A    between atoms: _155  and  _157
REMARK   69  A    between atoms: _157  and  _158
REMARK   70  A    between atoms: _160  and  _162
REMARK   71  A    between atoms: _162  and  _163
REMARK   72  A    between atoms: _162  and  _165
REMARK   73  A    between atoms: _165  and  _166
REMARK   74  A    between atoms: _172  and  _174
REMARK   75  A    between atoms: _174  and  _175
REMARK   76  A    between atoms: _174  and  _177
REMARK   77  A    between atoms: _177  and  _178
REMARK   78  A    between atoms: _181  and  _183
REMARK   79  A    between atoms: _183  and  _184
REMARK   80  A    between atoms: _183  and  _186
REMARK   81  A    between atoms: _189  and  _191
REMARK   82  A    between atoms: _191  and  _192
REMARK   83  A    between atoms: _191  and  _194
REMARK   84  A    between atoms: _194  and  _195
REMARK   85  A    between atoms: _198  and  _200
REMARK   86  A    between atoms: _200  and  _201
REMARK   87  A    between atoms: _200  and  _203
REMARK   88  A    between atoms: _203  and  _204
REMARK   89  A    between atoms: _208  and  _209
REMARK   90  A    between atoms: _214  and  _216
REMARK   91  A    between atoms: _216  and  _217
REMARK   92  A    between atoms: _216  and  _219
REMARK   93  A    between atoms: _222  and  _224
REMARK   94  A    between atoms: _224  and  _225
REMARK   95  A    between atoms: _224  and  _227
REMARK   96  A    between atoms: _227  and  _228
REMARK   97  A    between atoms: _233  and  _235
REMARK   98  A    between atoms: _235  and  _236
REMARK   99  A    between atoms: _235  and  _238
REMARK  100  A    between atoms: _238  and  _239
REMARK  101  A    between atoms: _242  and  _244
REMARK  102  A    between atoms: _244  and  _245
REMARK  103  A    between atoms: _244  and  _247
REMARK  104  A    between atoms: _247  and  _248
REMARK  105  A    between atoms: _251  and  _253
REMARK  106  A    between atoms: _253  and  _254
REMARK  107  A    between atoms: _256  and  _258
REMARK  108  A    between atoms: _258  and  _259
REMARK  109  A    between atoms: _258  and  _261
REMARK  110  A    between atoms: _261  and  _262
REMARK  111  A    between atoms: _262  and  _263
REMARK  112  A    between atoms: _263  and  _264
REMARK  113  A    between atoms: _273  and  _275
REMARK  114  A    between atoms: _275  and  _276
REMARK  115  A    between atoms: _275  and  _278
REMARK  116  A    between atoms: _278  and  _279
REMARK  117  A    between atoms: _284  and  _286
REMARK  118  A    between atoms: _286  and  _287
REMARK  119  A    between atoms: _286  and  _289
REMARK  120  A    between atoms: _289  and  _290
REMARK  121  A    between atoms: _290  and  _291
REMARK  122  A    between atoms: _291  and  _292
REMARK  123  A    between atoms: _301  and  _303
REMARK  124  A    between atoms: _303  and  _304
REMARK  125  A    between atoms: _303  and  _306
REMARK  126  A    between atoms: _306  and  _307
REMARK  127  A    between atoms: _310  and  _312
REMARK  128  A    between atoms: _312  and  _313
REMARK  129  A    between atoms: _312  and  _315
REMARK  130  A    between atoms: _315  and  _316
REMARK  131  A    between atoms: _319  and  _321
REMARK  132  A    between atoms: _321  and  _322
REMARK  133  A    between atoms: _321  and  _324
REMARK  134  A    between atoms: _324  and  _325
REMARK  135  A    between atoms: _328  and  _330
REMARK  136  A    between atoms: _330  and  _331
REMARK  137  A    between atoms: _330  and  _333
REMARK  138  A    between atoms: _333  and  _334
REMARK  139  A    between atoms: _337  and  _339
REMARK  140  A    between atoms: _339  and  _340
REMARK  141  A    between atoms: _342  and  _344
REMARK  142  A    between atoms: _344  and  _345
REMARK  143  A    between atoms: _348  and  _350
REMARK  144  A    between atoms: _350  and  _351
REMARK  145  A    between atoms: _350  and  _353
REMARK  146  A    between atoms: _353  and  _354
REMARK  147  A    between atoms: _357  and  _359
REMARK  148  A    between atoms: _359  and  _360
REMARK  149  A    between atoms: _359  and  _362
REMARK  150  A    between atoms: _362  and  _363
REMARK  151  A    between atoms: _366  and  _368
REMARK  152  A    between atoms: _368  and  _369
REMARK  153  A    between atoms: _368  and  _371
REMARK  154  A    between atoms: _371  and  _372
REMARK  155  A    between atoms: _375  and  _377
REMARK  156  A    between atoms: _377  and  _378
REMARK  157  A    between atoms: _377  and  _380
REMARK  158  A    between atoms: _383  and  _385
REMARK  159  A    between atoms: _385  and  _386
REMARK  160  A    between atoms: _385  and  _388
REMARK  161  A    between atoms: _388  and  _389
REMARK  162  A    between atoms: _392  and  _394
REMARK  163  A    between atoms: _394  and  _395
REMARK  164  A    between atoms: _394  and  _397
REMARK  165  A    between atoms: _397  and  _398
REMARK  166  A    between atoms: _398  and  _399
REMARK  167  A    between atoms: _399  and  _400
REMARK  168  A    between atoms: _400  and  _401
REMARK  169  A    between atoms: _405  and  _407
REMARK  170  A    between atoms: _407  and  _408
REMARK  171  A    between atoms: _407  and  _410
REMARK  172  A    between atoms: _410  and  _411
REMARK  173  A    between atoms: _414  and  _416
REMARK  174  A    between atoms: _416  and  _417
REMARK  175  A    between atoms: _419  and  _421
REMARK  176  A    between atoms: _421  and  _422
REMARK  177  A    between atoms: _424  and  _426
REMARK  178  A    between atoms: _426  and  _427
REMARK  179  A    between atoms: _426  and  _429
REMARK  180  A    between atoms: _429  and  _430
REMARK  181  A    between atoms: _433  and  _435
REMARK  182  A    between atoms: _435  and  _436
REMARK  183  A    between atoms: _438  and  _440
REMARK  184  A    between atoms: _440  and  _441
REMARK  185  A    between atoms: _443  and  _445
REMARK  186  A    between atoms: _445  and  _446
REMARK  187  A    between atoms: _445  and  _448
REMARK  188  A    between atoms: _448  and  _449
REMARK  189  A    between atoms: _455  and  _457
REMARK  190  A    between atoms: _457  and  _458
REMARK  191  A    between atoms: _457  and  _460
REMARK  192  A    between atoms: _460  and  _461
REMARK  193  A    between atoms: _464  and  _466
REMARK  194  A    between atoms: _466  and  _467
REMARK  195  A    between atoms: _466  and  _469
REMARK  196  A    between atoms: _472  and  _474
REMARK  197  A    between atoms: _474  and  _475
REMARK  198  A    between atoms: _474  and  _477
REMARK  199  A    between atoms: _477  and  _478
REMARK  200  A    between atoms: _482  and  _483
REMARK  201  A    between atoms: _488  and  _490
REMARK  202  A    between atoms: _490  and  _491
REMARK  203  A    between atoms: _490  and  _493
REMARK  204  A    between atoms: _493  and  _494
REMARK  205  A    between atoms: _498  and  _499
REMARK  206  A    between atoms: _504  and  _506
REMARK  207  A    between atoms: _506  and  _507
REMARK  208  A    between atoms: _506  and  _509
REMARK  209  A    between atoms: _512  and  _514
REMARK  210  A    between atoms: _514  and  _515
REMARK  211  A    between atoms: _514  and  _517
REMARK  212  A    between atoms: _517  and  _518
REMARK  213  A    between atoms: _523  and  _525
REMARK  214  A    between atoms: _525  and  _526
REMARK  215  A    between atoms: _525  and  _528
REMARK  216  A    between atoms: _528  and  _529
REMARK  217  A    between atoms: _532  and  _534
REMARK  218  A    between atoms: _534  and  _535
REMARK  219  A    between atoms: _534  and  _537
REMARK  220  A    between atoms: _537  and  _538
REMARK  221  A    between atoms: _541  and  _543
REMARK  222  A    between atoms: _543  and  _544
REMARK  223  A    between atoms: _546  and  _548
REMARK  224  A    between atoms: _548  and  _549
REMARK  225  A    between atoms: _548  and  _551
REMARK  226  A    between atoms: _551  and  _552
REMARK  227  A    between atoms: _552  and  _553
REMARK  228  A    between atoms: _553  and  _554
REMARK  229  A    between atoms: _563  and  _565
REMARK  230  A    between atoms: _565  and  _566
REMARK  231  A    between atoms: _565  and  _568
REMARK  232  A    between atoms: _568  and  _569
REMARK                            x       y       z     vdW  Elec       q    Type
REMARK                         _______ _______ _______ _____ _____    ______ ____
ROOT
ATOM      1  O   HOH     1      -6.219  18.638  -5.629  0.00  0.00    +0.000 OA
ENDROOT
TORSDOF 0
REMARK  Name = ../refined-set-2016/1m0b/1m0b_pocket.pdb
REMARK  232 active torsions:
REMARK  status: ('A' for Active; 'I' for Inactive)
REMARK    1  A    between atoms: _1  and  _3
REMARK    2  A    between atoms: _3  and  _4
REMARK    3  A    between atoms: _3  and  _6
REMARK    4  A    between atoms: _6  and  _7
REMARK    5  A    between atoms: _7  and  _8
REMARK    6  A    between atoms: _8  and  _9
REMARK    7  A    between atoms: _18  and  _20
REMARK    8  A    between atoms: _20  and  _21
REMARK    9  A    between atoms: _20  and  _23
REMARK   10  A    between atoms: _23  and  _24
REMARK   11  A    between atoms: _27  and  _29
REMARK   12  A    between atoms: _29  and  _30
REMARK   13  A    between atoms: _29  and  _32
REMARK   14  A    between atoms: _32  and  _33
REMARK   15  A    between atoms: _36  and  _38
REMARK   16  A    between atoms: _38  and  _39
REMARK   17  A    between atoms: _38  and  _41
REMARK   18  A    between atoms: _41  and  _42
REMARK   19  A    between atoms: _45  and  _47
REMARK   20  A    between atoms: _47  and  _48
REMARK   21  A    between atoms: _47  and  _50
REMARK   22  A    between atoms: _50  and  _51
REMARK   23  A    between atoms: _54  and  _56
REMARK   24  A    between atoms: _56  and  _57
REMARK   25  A    between atoms: _59  and  _61
REMARK   26  A    between atoms: _61  and  _62
REMARK   27  A    between atoms: _65  and  _67
REMARK   28  A    between atoms: _67  and  _68
REMARK   29  A    between atoms: _67  and  _70
REMARK   30  A    between atoms: _70  and  _71
REMARK   31  A    between atoms: _74  and  _76
REMARK   32  A    between atoms: _76  and  _77
REMARK   33  A    between atoms: _76  and  _79
REMARK   34  A    between atoms: _79  and  _80
REMARK   35  A    between atoms: _83  and  _85
REMARK   36  A    between atoms: _85  and  _86
REMARK   37  A    between atoms: _85  and  _88
REMARK   38  A    between atoms: _88  and  _89
REMARK   39  A    between atoms: _92  and  _94
REMARK   40  A    between atoms: _94  and  _95
REMARK   41  A    between atoms: _94  and  _97
REMARK   42  A    between atoms: _100  and  _102
REMARK   43  A    between atoms: _102  and  _103
REMARK   44  A    between atoms: _102  and  _105
REMARK   45  A    between atoms: _105  and  _106
REMARK   46  A    between atoms: _106  and  _107
REMARK   47  A    between atoms: _107  and  _108
REMARK   48  A    between atoms: _108  and  _109
REMARK   49  A    between atoms: _113  and  _115
REMARK   50  A    between atoms: _115  and  _116
REMARK   51  A    between atoms: _115  and  _118
REMARK   52  A    between atoms: _118  and  _119
REMARK   53  A    between atoms: _119  and  _120
REMARK   54  A    between atoms: _122  and  _124
REMARK   55  A    between atoms: _124  and  _125
REMARK   56  A    between atoms: _124  and  _127
REMARK   57  A    between atoms: _127  and  _128
REMARK   58  A    between atoms: _131  and  _133
REMARK   59  A    between atoms: _133  and  _134
REMARK   60  A    between atoms: _136  and  _138
REMARK   61  A    between atoms: _138  and  _139
REMARK   62  A    between atoms: _141  and  _143
REMARK   63  A    between atoms: _143  and  _144
REMARK   64  A    between atoms: _143  and  _146
REMARK   65  A    between atoms: _146  and  _147
REMARK   66  A    between atoms: _150  and  _152
REMARK   67  A    between atoms: _152  and  _153
REMARK   68  A    between atoms: _155  and  _157
REMARK   69  A    between atoms: _157  and  _158
REMARK   70  A    between atoms: _160  and  _162
REMARK   71  A    between atoms: _162  and  _163
REMARK   72  A    between atoms: _162  and  _165
REMARK   73  A    between atoms: _165  and  _166
REMARK   74  A    between atoms: _172  and  _174
REMARK   75  A    between atoms: _174  and  _175
REMARK   76  A    between atoms: _174  and  _177
REMARK   77  A    between atoms: _177  and  _178
REMARK   78  A    between atoms: _181  and  _183
REMARK   79  A    between atoms: _183  and  _184
REMARK   80  A    between atoms: _183  and  _186
REMARK   81  A    between atoms: _189  and  _191
REMARK   82  A    between atoms: _191  and  _192
REMARK   83  A    between atoms: _191  and  _194
REMARK   84  A    between atoms: _194  and  _195
REMARK   85  A    between atoms: _198  and  _200
REMARK   86  A    between atoms: _200  and  _201
REMARK   87  A    between atoms: _200  and  _203
REMARK   88  A    between atoms: _203  and  _204
REMARK   89  A    between atoms: _208  and  _209
REMARK   90  A    between atoms: _214  and  _216
REMARK   91  A    between atoms: _216  and  _217
REMARK   92  A    between atoms: _216  and  _219
REMARK   93  A    between atoms: _222  and  _224
REMARK   94  A    between atoms: _224  and  _225
REMARK   95  A    between atoms: _224  and  _227
REMARK   96  A    between atoms: _227  and  _228
REMARK   97  A    between atoms: _233  and  _235
REMARK   98  A    between atoms: _235  and  _236
REMARK   99  A    between atoms: _235  and  _238
REMARK  100  A    between atoms: _238  and  _239
REMARK  101  A    between atoms: _242  and  _244
REMARK  102  A    between atoms: _244  and  _245
REMARK  103  A    between atoms: _244  and  _247
REMARK  104  A    between atoms: _247  and  _248
REMARK  105  A    between atoms: _251  and  _253
REMARK  106  A    between atoms: _253  and  _254
REMARK  107  A    between atoms: _256  and  _258
REMARK  108  A    between atoms: _258  and  _259
REMARK  109  A    between atoms: _258  and  _261
REMARK  110  A    between atoms: _261  and  _262
REMARK  111  A    between atoms: _262  and  _263
REMARK  112  A    between atoms: _263  and  _264
REMARK  113  A    between atoms: _273  and  _275
REMARK  114  A    between atoms: _275  and  _276
REMARK  115  A    between atoms: _275  and  _278
REMARK  116  A    between atoms: _278  and  _279
REMARK  117  A    between atoms: _284  and  _286
REMARK  118  A    between atoms: _286  and  _287
REMARK  119  A    between atoms: _286  and  _289
REMARK  120  A    between atoms: _289  and  _290
REMARK  121  A    between atoms: _290  and  _291
REMARK  122  A    between atoms: _291  and  _292
REMARK  123  A    between atoms: _301  and  _303
REMARK  124  A    between atoms: _303  and  _304
REMARK  125  A    between atoms: _303  and  _306
REMARK  126  A    between atoms: _306  and  _307
REMARK  127  A    between atoms: _310  and  _312
REMARK  128  A    between atoms: _312  and  _313
REMARK  129  A    between atoms: _312  and  _315
REMARK  130  A    between atoms: _315  and  _316
REMARK  131  A    between atoms: _319  and  _321
REMARK  132  A    between atoms: _321  and  _322
REMARK  133  A    between atoms: _321  and  _324
REMARK  134  A    between atoms: _324  and  _325
REMARK  135  A    between atoms: _328  and  _330
REMARK  136  A    between atoms: _330  and  _331
REMARK  137  A    between atoms: _330  and  _333
REMARK  138  A    between atoms: _333  and  _334
REMARK  139  A    between atoms: _337  and  _339
REMARK  140  A    between atoms: _339  and  _340
REMARK  141  A    between atoms: _342  and  _344
REMARK  142  A    between atoms: _344  and  _345
REMARK  143  A    between atoms: _348  and  _350
REMARK  144  A    between atoms: _350  and  _351
REMARK  145  A    between atoms: _350  and  _353
REMARK  146  A    between atoms: _353  and  _354
REMARK  147  A    between atoms: _357  and  _359
REMARK  148  A    between atoms: _359  and  _360
REMARK  149  A    between atoms: _359  and  _362
REMARK  150  A    between atoms: _362  and  _363
REMARK  151  A    between atoms: _366  and  _368
REMARK  152  A    between atoms: _368  and  _369
REMARK  153  A    between atoms: _368  and  _371
REMARK  154  A    between atoms: _371  and  _372
REMARK  155  A    between atoms: _375  and  _377
REMARK  156  A    between atoms: _377  and  _378
REMARK  157  A    between atoms: _377  and  _380
REMARK  158  A    between atoms: _383  and  _385
REMARK  159  A    between atoms: _385  and  _386
REMARK  160  A    between atoms: _385  and  _388
REMARK  161  A    between atoms: _388  and  _389
REMARK  162  A    between atoms: _392  and  _394
REMARK  163  A    between atoms: _394  and  _395
REMARK  164  A    between atoms: _394  and  _397
REMARK  165  A    between atoms: _397  and  _398
REMARK  166  A    between atoms: _398  and  _399
REMARK  167  A    between atoms: _399  and  _400
REMARK  168  A    between atoms: _400  and  _401
REMARK  169  A    between atoms: _405  and  _407
REMARK  170  A    between atoms: _407  and  _408
REMARK  171  A    between atoms: _407  and  _410
REMARK  172  A    between atoms: _410  and  _411
REMARK  173  A    between atoms: _414  and  _416
REMARK  174  A    between atoms: _416  and  _417
REMARK  175  A    between atoms: _419  and  _421
REMARK  176  A    between atoms: _421  and  _422
REMARK  177  A    between atoms: _424  and  _426
REMARK  178  A    between atoms: _426  and  _427
REMARK  179  A    between atoms: _426  and  _429
REMARK  180  A    between atoms: _429  and  _430
REMARK  181  A    between atoms: _433  and  _435
REMARK  182  A    between atoms: _435  and  _436
REMARK  183  A    between atoms: _438  and  _440
REMARK  184  A    between atoms: _440  and  _441
REMARK  185  A    between atoms: _443  and  _445
REMARK  186  A    between atoms: _445  and  _446
REMARK  187  A    between atoms: _445  and  _448
REMARK  188  A    between atoms: _448  and  _449
REMARK  189  A    between atoms: _455  and  _457
REMARK  190  A    between atoms: _457  and  _458
REMARK  191  A    between atoms: _457  and  _460
REMARK  192  A    between atoms: _460  and  _461
REMARK  193  A    between atoms: _464  and  _466
REMARK  194  A    between atoms: _466  and  _467
REMARK  195  A    between atoms: _466  and  _469
REMARK  196  A    between atoms: _472  and  _474
REMARK  197  A    between atoms: _474  and  _475
REMARK  198  A    between atoms: _474  and  _477
REMARK  199  A    between atoms: _477  and  _478
REMARK  200  A    between atoms: _482  and  _483
REMARK  201  A    between atoms: _488  and  _490
REMARK  202  A    between atoms: _490  and  _491
REMARK  203  A    between atoms: _490  and  _493
REMARK  204  A    between atoms: _493  and  _494
REMARK  205  A    between atoms: _498  and  _499
REMARK  206  A    between atoms: _504  and  _506
REMARK  207  A    between atoms: _506  and  _507
REMARK  208  A    between atoms: _506  and  _509
REMARK  209  A    between atoms: _512  and  _514
REMARK  210  A    between atoms: _514  and  _515
REMARK  211  A    between atoms: _514  and  _517
REMARK  212  A    between atoms: _517  and  _518
REMARK  213  A    between atoms: _523  and  _525
REMARK  214  A    between atoms: _525  and  _526
REMARK  215  A    between atoms: _525  and  _528
REMARK  216  A    between atoms: _528  and  _529
REMARK  217  A    between atoms: _532  and  _534
REMARK  218  A    between atoms: _534  and  _535
REMARK  219  A    between atoms: _534  and  _537
REMARK  220  A    between atoms: _537  and  _538
REMARK  221  A    between atoms: _541  and  _543
REMARK  222  A    between atoms: _543  and  _544
REMARK  223  A    between atoms: _546  and  _548
REMARK  224  A    between atoms: _548  and  _549
REMARK  225  A    between atoms: _548  and  _551
REMARK  226  A    between atoms: _551  and  _552
REMARK  227  A    between atoms: _552  and  _553
REMARK  228  A    between atoms: _553  and  _554
REMARK  229  A    between atoms: _563  and  _565
REMARK  230  A    between atoms: _565  and  _566
REMARK  231  A    between atoms: _565  and  _568
REMARK  232  A    between atoms: _568  and  _569
REMARK                            x       y       z     vdW  Elec       q    Type
REMARK                         _______ _______ _______ _____ _____    ______ ____
ROOT
ATOM      1  O   HOH     1      -5.057  16.101  -7.082  0.00  0.00    +0.000 OA
ENDROOT
TORSDOF 0
REMARK  Name = ../refined-set-2016/1m0b/1m0b_pocket.pdb
REMARK  232 active torsions:
REMARK  status: ('A' for Active; 'I' for Inactive)
REMARK    1  A    between atoms: _1  and  _3
REMARK    2  A    between atoms: _3  and  _4
REMARK    3  A    between atoms: _3  and  _6
REMARK    4  A    between atoms: _6  and  _7
REMARK    5  A    between atoms: _7  and  _8
REMARK    6  A    between atoms: _8  and  _9
REMARK    7  A    between atoms: _18  and  _20
REMARK    8  A    between atoms: _20  and  _21
REMARK    9  A    between atoms: _20  and  _23
REMARK   10  A    between atoms: _23  and  _24
REMARK   11  A    between atoms: _27  and  _29
REMARK   12  A    between atoms: _29  and  _30
REMARK   13  A    between atoms: _29  and  _32
REMARK   14  A    between atoms: _32  and  _33
REMARK   15  A    between atoms: _36  and  _38
REMARK   16  A    between atoms: _38  and  _39
REMARK   17  A    between atoms: _38  and  _41
REMARK   18  A    between atoms: _41  and  _42
REMARK   19  A    between atoms: _45  and  _47
REMARK   20  A    between atoms: _47  and  _48
REMARK   21  A    between atoms: _47  and  _50
REMARK   22  A    between atoms: _50  and  _51
REMARK   23  A    between atoms: _54  and  _56
REMARK   24  A    between atoms: _56  and  _57
REMARK   25  A    between atoms: _59  and  _61
REMARK   26  A    between atoms: _61  and  _62
REMARK   27  A    between atoms: _65  and  _67
REMARK   28  A    between atoms: _67  and  _68
REMARK   29  A    between atoms: _67  and  _70
REMARK   30  A    between atoms: _70  and  _71
REMARK   31  A    between atoms: _74  and  _76
REMARK   32  A    between atoms: _76  and  _77
REMARK   33  A    between atoms: _76  and  _79
REMARK   34  A    between atoms: _79  and  _80
REMARK   35  A    between atoms: _83  and  _85
REMARK   36  A    between atoms: _85  and  _86
REMARK   37  A    between atoms: _85  and  _88
REMARK   38  A    between atoms: _88  and  _89
REMARK   39  A    between atoms: _92  and  _94
REMARK   40  A    between atoms: _94  and  _95
REMARK   41  A    between atoms: _94  and  _97
REMARK   42  A    between atoms: _100  and  _102
REMARK   43  A    between atoms: _102  and  _103
REMARK   44  A    between atoms: _102  and  _105
REMARK   45  A    between atoms: _105  and  _106
REMARK   46  A    between atoms: _106  and  _107
REMARK   47  A    between atoms: _107  and  _108
REMARK   48  A    between atoms: _108  and  _109
REMARK   49  A    between atoms: _113  and  _115
REMARK   50  A    between atoms: _115  and  _116
REMARK   51  A    between atoms: _115  and  _118
REMARK   52  A    between atoms: _118  and  _119
REMARK   53  A    between atoms: _119  and  _120
REMARK   54  A    between atoms: _122  and  _124
REMARK   55  A    between atoms: _124  and  _125
REMARK   56  A    between atoms: _124  and  _127
REMARK   57  A    between atoms: _127  and  _128
REMARK   58  A    between atoms: _131  and  _133
REMARK   59  A    between atoms: _133  and  _134
REMARK   60  A    between atoms: _136  and  _138
REMARK   61  A    between atoms: _138  and  _139
REMARK   62  A    between atoms: _141  and  _143
REMARK   63  A    between atoms: _143  and  _144
REMARK   64  A    between atoms: _143  and  _146
REMARK   65  A    between atoms: _146  and  _147
REMARK   66  A    between atoms: _150  and  _152
REMARK   67  A    between atoms: _152  and  _153
REMARK   68  A    between atoms: _155  and  _157
REMARK   69  A    between atoms: _157  and  _158
REMARK   70  A    between atoms: _160  and  _162
REMARK   71  A    between atoms: _162  and  _163
REMARK   72  A    between atoms: _162  and  _165
REMARK   73  A    between atoms: _165  and  _166
REMARK   74  A    between atoms: _172  and  _174
REMARK   75  A    between atoms: _174  and  _175
REMARK   76  A    between atoms: _174  and  _177
REMARK   77  A    between atoms: _177  and  _178
REMARK   78  A    between atoms: _181  and  _183
REMARK   79  A    between atoms: _183  and  _184
REMARK   80  A    between atoms: _183  and  _186
REMARK   81  A    between atoms: _189  and  _191
REMARK   82  A    between atoms: _191  and  _192
REMARK   83  A    between atoms: _191  and  _194
REMARK   84  A    between atoms: _194  and  _195
REMARK   85  A    between atoms: _198  and  _200
REMARK   86  A    between atoms: _200  and  _201
REMARK   87  A    between atoms: _200  and  _203
REMARK   88  A    between atoms: _203  and  _204
REMARK   89  A    between atoms: _208  and  _209
REMARK   90  A    between atoms: _214  and  _216
REMARK   91  A    between atoms: _216  and  _217
REMARK   92  A    between atoms: _216  and  _219
REMARK   93  A    between atoms: _222  and  _224
REMARK   94  A    between atoms: _224  and  _225
REMARK   95  A    between atoms: _224  and  _227
REMARK   96  A    between atoms: _227  and  _228
REMARK   97  A    between atoms: _233  and  _235
REMARK   98  A    between atoms: _235  and  _236
REMARK   99  A    between atoms: _235  and  _238
REMARK  100  A    between atoms: _238  and  _239
REMARK  101  A    between atoms: _242  and  _244
REMARK  102  A    between atoms: _244  and  _245
REMARK  103  A    between atoms: _244  and  _247
REMARK  104  A    between atoms: _247  and  _248
REMARK  105  A    between atoms: _251  and  _253
REMARK  106  A    between atoms: _253  and  _254
REMARK  107  A    between atoms: _256  and  _258
REMARK  108  A    between atoms: _258  and  _259
REMARK  109  A    between atoms: _258  and  _261
REMARK  110  A    between atoms: _261  and  _262
REMARK  111  A    between atoms: _262  and  _263
REMARK  112  A    between atoms: _263  and  _264
REMARK  113  A    between atoms: _273  and  _275
REMARK  114  A    between atoms: _275  and  _276
REMARK  115  A    between atoms: _275  and  _278
REMARK  116  A    between atoms: _278  and  _279
REMARK  117  A    between atoms: _284  and  _286
REMARK  118  A    between atoms: _286  and  _287
REMARK  119  A    between atoms: _286  and  _289
REMARK  120  A    between atoms: _289  and  _290
REMARK  121  A    between atoms: _290  and  _291
REMARK  122  A    between atoms: _291  and  _292
REMARK  123  A    between atoms: _301  and  _303
REMARK  124  A    between atoms: _303  and  _304
REMARK  125  A    between atoms: _303  and  _306
REMARK  126  A    between atoms: _306  and  _307
REMARK  127  A    between atoms: _310  and  _312
REMARK  128  A    between atoms: _312  and  _313
REMARK  129  A    between atoms: _312  and  _315
REMARK  130  A    between atoms: _315  and  _316
REMARK  131  A    between atoms: _319  and  _321
REMARK  132  A    between atoms: _321  and  _322
REMARK  133  A    between atoms: _321  and  _324
REMARK  134  A    between atoms: _324  and  _325
REMARK  135  A    between atoms: _328  and  _330
REMARK  136  A    between atoms: _330  and  _331
REMARK  137  A    between atoms: _330  and  _333
REMARK  138  A    between atoms: _333  and  _334
REMARK  139  A    between atoms: _337  and  _339
REMARK  140  A    between atoms: _339  and  _340
REMARK  141  A    between atoms: _342  and  _344
REMARK  142  A    between atoms: _344  and  _345
REMARK  143  A    between atoms: _348  and  _350
REMARK  144  A    between atoms: _350  and  _351
REMARK  145  A    between atoms: _350  and  _353
REMARK  146  A    between atoms: _353  and  _354
REMARK  147  A    between atoms: _357  and  _359
REMARK  148  A    between atoms: _359  and  _360
REMARK  149  A    between atoms: _359  and  _362
REMARK  150  A    between atoms: _362  and  _363
REMARK  151  A    between atoms: _366  and  _368
REMARK  152  A    between atoms: _368  and  _369
REMARK  153  A    between atoms: _368  and  _371
REMARK  154  A    between atoms: _371  and  _372
REMARK  155  A    between atoms: _375  and  _377
REMARK  156  A    between atoms: _377  and  _378
REMARK  157  A    between atoms: _377  and  _380
REMARK  158  A    between atoms: _383  and  _385
REMARK  159  A    between atoms: _385  and  _386
REMARK  160  A    between atoms: _385  and  _388
REMARK  161  A    between atoms: _388  and  _389
REMARK  162  A    between atoms: _392  and  _394
REMARK  163  A    between atoms: _394  and  _395
REMARK  164  A    between atoms: _394  and  _397
REMARK  165  A    between atoms: _397  and  _398
REMARK  166  A    between atoms: _398  and  _399
REMARK  167  A    between atoms: _399  and  _400
REMARK  168  A    between atoms: _400  and  _401
REMARK  169  A    between atoms: _405  and  _407
REMARK  170  A    between atoms: _407  and  _408
REMARK  171  A    between atoms: _407  and  _410
REMARK  172  A    between atoms: _410  and  _411
REMARK  173  A    between atoms: _414  and  _416
REMARK  174  A    between atoms: _416  and  _417
REMARK  175  A    between atoms: _419  and  _421
REMARK  176  A    between atoms: _421  and  _422
REMARK  177  A    between atoms: _424  and  _426
REMARK  178  A    between atoms: _426  and  _427
REMARK  179  A    between atoms: _426  and  _429
REMARK  180  A    between atoms: _429  and  _430
REMARK  181  A    between atoms: _433  and  _435
REMARK  182  A    between atoms: _435  and  _436
REMARK  183  A    between atoms: _438  and  _440
REMARK  184  A    between atoms: _440  and  _441
REMARK  185  A    between atoms: _443  and  _445
REMARK  186  A    between atoms: _445  and  _446
REMARK  187  A    between atoms: _445  and  _448
REMARK  188  A    between atoms: _448  and  _449
REMARK  189  A    between atoms: _455  and  _457
REMARK  190  A    between atoms: _457  and  _458
REMARK  191  A    between atoms: _457  and  _460
REMARK  192  A    between atoms: _460  and  _461
REMARK  193  A    between atoms: _464  and  _466
REMARK  194  A    between atoms: _466  and  _467
REMARK  195  A    between atoms: _466  and  _469
REMARK  196  A    between atoms: _472  and  _474
REMARK  197  A    between atoms: _474  and  _475
REMARK  198  A    between atoms: _474  and  _477
REMARK  199  A    between atoms: _477  and  _478
REMARK  200  A    between atoms: _482  and  _483
REMARK  201  A    between atoms: _488  and  _490
REMARK  202  A    between atoms: _490  and  _491
REMARK  203  A    between atoms: _490  and  _493
REMARK  204  A    between atoms: _493  and  _494
REMARK  205  A    between atoms: _498  and  _499
REMARK  206  A    between atoms: _504  and  _506
REMARK  207  A    between atoms: _506  and  _507
REMARK  208  A    between atoms: _506  and  _509
REMARK  209  A    between atoms: _512  and  _514
REMARK  210  A    between atoms: _514  and  _515
REMARK  211  A    between atoms: _514  and  _517
REMARK  212  A    between atoms: _517  and  _518
REMARK  213  A    between atoms: _523  and  _525
REMARK  214  A    between atoms: _525  and  _526
REMARK  215  A    between atoms: _525  and  _528
REMARK  216  A    between atoms: _528  and  _529
REMARK  217  A    between atoms: _532  and  _534
REMARK  218  A    between atoms: _534  and  _535
REMARK  219  A    between atoms: _534  and  _537
REMARK  220  A    between atoms: _537  and  _538
REMARK  221  A    between atoms: _541  and  _543
REMARK  222  A    between atoms: _543  and  _544
REMARK  223  A    between atoms: _546  and  _548
REMARK  224  A    between atoms: _548  and  _549
REMARK  225  A    between atoms: _548  and  _551
REMARK  226  A    between atoms: _551  and  _552
REMARK  227  A    between atoms: _552  and  _553
REMARK  228  A    between atoms: _553  and  _554
REMARK  229  A    between atoms: _563  and  _565
REMARK  230  A    between atoms: _565  and  _566
REMARK  231  A    between atoms: _565  and  _568
REMARK  232  A    between atoms: _568  and  _569
REMARK                            x       y       z     vdW  Elec       q    Type
REMARK                         _______ _______ _______ _____ _____    ______ ____
ROOT
ATOM      1  O   HOH     1      -8.064  24.000  -4.685  0.00  0.00    +0.000 OA
ENDROOT
TORSDOF 0
REMARK  Name = ../refined-set-2016/1m0b/1m0b_pocket.pdb
REMARK  232 active torsions:
REMARK  status: ('A' for Active; 'I' for Inactive)
REMARK    1  A    between atoms: _1  and  _3
REMARK    2  A    between atoms: _3  and  _4
REMARK    3  A    between atoms: _3  and  _6
REMARK    4  A    between atoms: _6  and  _7
REMARK    5  A    between atoms: _7  and  _8
REMARK    6  A    between atoms: _8  and  _9
REMARK    7  A    between atoms: _18  and  _20
REMARK    8  A    between atoms: _20  and  _21
REMARK    9  A    between atoms: _20  and  _23
REMARK   10  A    between atoms: _23  and  _24
REMARK   11  A    between atoms: _27  and  _29
REMARK   12  A    between atoms: _29  and  _30
REMARK   13  A    between atoms: _29  and  _32
REMARK   14  A    between atoms: _32  and  _33
REMARK   15  A    between atoms: _36  and  _38
REMARK   16  A    between atoms: _38  and  _39
REMARK   17  A    between atoms: _38  and  _41
REMARK   18  A    between atoms: _41  and  _42
REMARK   19  A    between atoms: _45  and  _47
REMARK   20  A    between atoms: _47  and  _48
REMARK   21  A    between atoms: _47  and  _50
REMARK   22  A    between atoms: _50  and  _51
REMARK   23  A    between atoms: _54  and  _56
REMARK   24  A    between atoms: _56  and  _57
REMARK   25  A    between atoms: _59  and  _61
REMARK   26  A    between atoms: _61  and  _62
REMARK   27  A    between atoms: _65  and  _67
REMARK   28  A    between atoms: _67  and  _68
REMARK   29  A    between atoms: _67  and  _70
REMARK   30  A    between atoms: _70  and  _71
REMARK   31  A    between atoms: _74  and  _76
REMARK   32  A    between atoms: _76  and  _77
REMARK   33  A    between atoms: _76  and  _79
REMARK   34  A    between atoms: _79  and  _80
REMARK   35  A    between atoms: _83  and  _85
REMARK   36  A    between atoms: _85  and  _86
REMARK   37  A    between atoms: _85  and  _88
REMARK   38  A    between atoms: _88  and  _89
REMARK   39  A    between atoms: _92  and  _94
REMARK   40  A    between atoms: _94  and  _95
REMARK   41  A    between atoms: _94  and  _97
REMARK   42  A    between atoms: _100  and  _102
REMARK   43  A    between atoms: _102  and  _103
REMARK   44  A    between atoms: _102  and  _105
REMARK   45  A    between atoms: _105  and  _106
REMARK   46  A    between atoms: _106  and  _107
REMARK   47  A    between atoms: _107  and  _108
REMARK   48  A    between atoms: _108  and  _109
REMARK   49  A    between atoms: _113  and  _115
REMARK   50  A    between atoms: _115  and  _116
REMARK   51  A    between atoms: _115  and  _118
REMARK   52  A    between atoms: _118  and  _119
REMARK   53  A    between atoms: _119  and  _120
REMARK   54  A    between atoms: _122  and  _124
REMARK   55  A    between atoms: _124  and  _125
REMARK   56  A    between atoms: _124  and  _127
REMARK   57  A    between atoms: _127  and  _128
REMARK   58  A    between atoms: _131  and  _133
REMARK   59  A    between atoms: _133  and  _134
REMARK   60  A    between atoms: _136  and  _138
REMARK   61  A    between atoms: _138  and  _139
REMARK   62  A    between atoms: _141  and  _143
REMARK   63  A    between atoms: _143  and  _144
REMARK   64  A    between atoms: _143  and  _146
REMARK   65  A    between atoms: _146  and  _147
REMARK   66  A    between atoms: _150  and  _152
REMARK   67  A    between atoms: _152  and  _153
REMARK   68  A    between atoms: _155  and  _157
REMARK   69  A    between atoms: _157  and  _158
REMARK   70  A    between atoms: _160  and  _162
REMARK   71  A    between atoms: _162  and  _163
REMARK   72  A    between atoms: _162  and  _165
REMARK   73  A    between atoms: _165  and  _166
REMARK   74  A    between atoms: _172  and  _174
REMARK   75  A    between atoms: _174  and  _175
REMARK   76  A    between atoms: _174  and  _177
REMARK   77  A    between atoms: _177  and  _178
REMARK   78  A    between atoms: _181  and  _183
REMARK   79  A    between atoms: _183  and  _184
REMARK   80  A    between atoms: _183  and  _186
REMARK   81  A    between atoms: _189  and  _191
REMARK   82  A    between atoms: _191  and  _192
REMARK   83  A    between atoms: _191  and  _194
REMARK   84  A    between atoms: _194  and  _195
REMARK   85  A    between atoms: _198  and  _200
REMARK   86  A    between atoms: _200  and  _201
REMARK   87  A    between atoms: _200  and  _203
REMARK   88  A    between atoms: _203  and  _204
REMARK   89  A    between atoms: _208  and  _209
REMARK   90  A    between atoms: _214  and  _216
REMARK   91  A    between atoms: _216  and  _217
REMARK   92  A    between atoms: _216  and  _219
REMARK   93  A    between atoms: _222  and  _224
REMARK   94  A    between atoms: _224  and  _225
REMARK   95  A    between atoms: _224  and  _227
REMARK   96  A    between atoms: _227  and  _228
REMARK   97  A    between atoms: _233  and  _235
REMARK   98  A    between atoms: _235  and  _236
REMARK   99  A    between atoms: _235  and  _238
REMARK  100  A    between atoms: _238  and  _239
REMARK  101  A    between atoms: _242  and  _244
REMARK  102  A    between atoms: _244  and  _245
REMARK  103  A    between atoms: _244  and  _247
REMARK  104  A    between atoms: _247  and  _248
REMARK  105  A    between atoms: _251  and  _253
REMARK  106  A    between atoms: _253  and  _254
REMARK  107  A    between atoms: _256  and  _258
REMARK  108  A    between atoms: _258  and  _259
REMARK  109  A    between atoms: _258  and  _261
REMARK  110  A    between atoms: _261  and  _262
REMARK  111  A    between atoms: _262  and  _263
REMARK  112  A    between atoms: _263  and  _264
REMARK  113  A    between atoms: _273  and  _275
REMARK  114  A    between atoms: _275  and  _276
REMARK  115  A    between atoms: _275  and  _278
REMARK  116  A    between atoms: _278  and  _279
REMARK  117  A    between atoms: _284  and  _286
REMARK  118  A    between atoms: _286  and  _287
REMARK  119  A    between atoms: _286  and  _289
REMARK  120  A    between atoms: _289  and  _290
REMARK  121  A    between atoms: _290  and  _291
REMARK  122  A    between atoms: _291  and  _292
REMARK  123  A    between atoms: _301  and  _303
REMARK  124  A    between atoms: _303  and  _304
REMARK  125  A    between atoms: _303  and  _306
REMARK  126  A    between atoms: _306  and  _307
REMARK  127  A    between atoms: _310  and  _312
REMARK  128  A    between atoms: _312  and  _313
REMARK  129  A    between atoms: _312  and  _315
REMARK  130  A    between atoms: _315  and  _316
REMARK  131  A    between atoms: _319  and  _321
REMARK  132  A    between atoms: _321  and  _322
REMARK  133  A    between atoms: _321  and  _324
REMARK  134  A    between atoms: _324  and  _325
REMARK  135  A    between atoms: _328  and  _330
REMARK  136  A    between atoms: _330  and  _331
REMARK  137  A    between atoms: _330  and  _333
REMARK  138  A    between atoms: _333  and  _334
REMARK  139  A    between atoms: _337  and  _339
REMARK  140  A    between atoms: _339  and  _340
REMARK  141  A    between atoms: _342  and  _344
REMARK  142  A    between atoms: _344  and  _345
REMARK  143  A    between atoms: _348  and  _350
REMARK  144  A    between atoms: _350  and  _351
REMARK  145  A    between atoms: _350  and  _353
REMARK  146  A    between atoms: _353  and  _354
REMARK  147  A    between atoms: _357  and  _359
REMARK  148  A    between atoms: _359  and  _360
REMARK  149  A    between atoms: _359  and  _362
REMARK  150  A    between atoms: _362  and  _363
REMARK  151  A    between atoms: _366  and  _368
REMARK  152  A    between atoms: _368  and  _369
REMARK  153  A    between atoms: _368  and  _371
REMARK  154  A    between atoms: _371  and  _372
REMARK  155  A    between atoms: _375  and  _377
REMARK  156  A    between atoms: _377  and  _378
REMARK  157  A    between atoms: _377  and  _380
REMARK  158  A    between atoms: _383  and  _385
REMARK  159  A    between atoms: _385  and  _386
REMARK  160  A    between atoms: _385  and  _388
REMARK  161  A    between atoms: _388  and  _389
REMARK  162  A    between atoms: _392  and  _394
REMARK  163  A    between atoms: _394  and  _395
REMARK  164  A    between atoms: _394  and  _397
REMARK  165  A    between atoms: _397  and  _398
REMARK  166  A    between atoms: _398  and  _399
REMARK  167  A    between atoms: _399  and  _400
REMARK  168  A    between atoms: _400  and  _401
REMARK  169  A    between atoms: _405  and  _407
REMARK  170  A    between atoms: _407  and  _408
REMARK  171  A    between atoms: _407  and  _410
REMARK  172  A    between atoms: _410  and  _411
REMARK  173  A    between atoms: _414  and  _416
REMARK  174  A    between atoms: _416  and  _417
REMARK  175  A    between atoms: _419  and  _421
REMARK  176  A    between atoms: _421  and  _422
REMARK  177  A    between atoms: _424  and  _426
REMARK  178  A    between atoms: _426  and  _427
REMARK  179  A    between atoms: _426  and  _429
REMARK  180  A    between atoms: _429  and  _430
REMARK  181  A    between atoms: _433  and  _435
REMARK  182  A    between atoms: _435  and  _436
REMARK  183  A    between atoms: _438  and  _440
REMARK  184  A    between atoms: _440  and  _441
REMARK  185  A    between atoms: _443  and  _445
REMARK  186  A    between atoms: _445  and  _446
REMARK  187  A    between atoms: _445  and  _448
REMARK  188  A    between atoms: _448  and  _449
REMARK  189  A    between atoms: _455  and  _457
REMARK  190  A    between atoms: _457  and  _458
REMARK  191  A    between atoms: _457  and  _460
REMARK  192  A    between atoms: _460  and  _461
REMARK  193  A    between atoms: _464  and  _466
REMARK  194  A    between atoms: _466  and  _467
REMARK  195  A    between atoms: _466  and  _469
REMARK  196  A    between atoms: _472  and  _474
REMARK  197  A    between atoms: _474  and  _475
REMARK  198  A    between atoms: _474  and  _477
REMARK  199  A    between atoms: _477  and  _478
REMARK  200  A    between atoms: _482  and  _483
REMARK  201  A    between atoms: _488  and  _490
REMARK  202  A    between atoms: _490  and  _491
REMARK  203  A    between atoms: _490  and  _493
REMARK  204  A    between atoms: _493  and  _494
REMARK  205  A    between atoms: _498  and  _499
REMARK  206  A    between atoms: _504  and  _506
REMARK  207  A    between atoms: _506  and  _507
REMARK  208  A    between atoms: _506  and  _509
REMARK  209  A    between atoms: _512  and  _514
REMARK  210  A    between atoms: _514  and  _515
REMARK  211  A    between atoms: _514  and  _517
REMARK  212  A    between atoms: _517  and  _518
REMARK  213  A    between atoms: _523  and  _525
REMARK  214  A    between atoms: _525  and  _526
REMARK  215  A    between atoms: _525  and  _528
REMARK  216  A    between atoms: _528  and  _529
REMARK  217  A    between atoms: _532  and  _534
REMARK  218  A    between atoms: _534  and  _535
REMARK  219  A    between atoms: _534  and  _537
REMARK  220  A    between atoms: _537  and  _538
REMARK  221  A    between atoms: _541  and  _543
REMARK  222  A    between atoms: _543  and  _544
REMARK  223  A    between atoms: _546  and  _548
REMARK  224  A    between atoms: _548  and  _549
REMARK  225  A    between atoms: _548  and  _551
REMARK  226  A    between atoms: _551  and  _552
REMARK  227  A    between atoms: _552  and  _553
REMARK  228  A    between atoms: _553  and  _554
REMARK  229  A    between atoms: _563  and  _565
REMARK  230  A    between atoms: _565  and  _566
REMARK  231  A    between atoms: _565  and  _568
REMARK  232  A    between atoms: _568  and  _569
REMARK                            x       y       z     vdW  Elec       q    Type
REMARK                         _______ _______ _______ _____ _____    ______ ____
ROOT
ATOM      1  O   HOH     1      -5.345  16.564 -12.029  0.00  0.00    +0.000 OA
ENDROOT
TORSDOF 0
REMARK  Name = ../refined-set-2016/1m0b/1m0b_pocket.pdb
REMARK  232 active torsions:
REMARK  status: ('A' for Active; 'I' for Inactive)
REMARK    1  A    between atoms: _1  and  _3
REMARK    2  A    between atoms: _3  and  _4
REMARK    3  A    between atoms: _3  and  _6
REMARK    4  A    between atoms: _6  and  _7
REMARK    5  A    between atoms: _7  and  _8
REMARK    6  A    between atoms: _8  and  _9
REMARK    7  A    between atoms: _18  and  _20
REMARK    8  A    between atoms: _20  and  _21
REMARK    9  A    between atoms: _20  and  _23
REMARK   10  A    between atoms: _23  and  _24
REMARK   11  A    between atoms: _27  and  _29
REMARK   12  A    between atoms: _29  and  _30
REMARK   13  A    between atoms: _29  and  _32
REMARK   14  A    between atoms: _32  and  _33
REMARK   15  A    between atoms: _36  and  _38
REMARK   16  A    between atoms: _38  and  _39
REMARK   17  A    between atoms: _38  and  _41
REMARK   18  A    between atoms: _41  and  _42
REMARK   19  A    between atoms: _45  and  _47
REMARK   20  A    between atoms: _47  and  _48
REMARK   21  A    between atoms: _47  and  _50
REMARK   22  A    between atoms: _50  and  _51
REMARK   23  A    between atoms: _54  and  _56
REMARK   24  A    between atoms: _56  and  _57
REMARK   25  A    between atoms: _59  and  _61
REMARK   26  A    between atoms: _61  and  _62
REMARK   27  A    between atoms: _65  and  _67
REMARK   28  A    between atoms: _67  and  _68
REMARK   29  A    between atoms: _67  and  _70
REMARK   30  A    between atoms: _70  and  _71
REMARK   31  A    between atoms: _74  and  _76
REMARK   32  A    between atoms: _76  and  _77
REMARK   33  A    between atoms: _76  and  _79
REMARK   34  A    between atoms: _79  and  _80
REMARK   35  A    between atoms: _83  and  _85
REMARK   36  A    between atoms: _85  and  _86
REMARK   37  A    between atoms: _85  and  _88
REMARK   38  A    between atoms: _88  and  _89
REMARK   39  A    between atoms: _92  and  _94
REMARK   40  A    between atoms: _94  and  _95
REMARK   41  A    between atoms: _94  and  _97
REMARK   42  A    between atoms: _100  and  _102
REMARK   43  A    between atoms: _102  and  _103
REMARK   44  A    between atoms: _102  and  _105
REMARK   45  A    between atoms: _105  and  _106
REMARK   46  A    between atoms: _106  and  _107
REMARK   47  A    between atoms: _107  and  _108
REMARK   48  A    between atoms: _108  and  _109
REMARK   49  A    between atoms: _113  and  _115
REMARK   50  A    between atoms: _115  and  _116
REMARK   51  A    between atoms: _115  and  _118
REMARK   52  A    between atoms: _118  and  _119
REMARK   53  A    between atoms: _119  and  _120
REMARK   54  A    between atoms: _122  and  _124
REMARK   55  A    between atoms: _124  and  _125
REMARK   56  A    between atoms: _124  and  _127
REMARK   57  A    between atoms: _127  and  _128
REMARK   58  A    between atoms: _131  and  _133
REMARK   59  A    between atoms: _133  and  _134
REMARK   60  A    between atoms: _136  and  _138
REMARK   61  A    between atoms: _138  and  _139
REMARK   62  A    between atoms: _141  and  _143
REMARK   63  A    between atoms: _143  and  _144
REMARK   64  A    between atoms: _143  and  _146
REMARK   65  A    between atoms: _146  and  _147
REMARK   66  A    between atoms: _150  and  _152
REMARK   67  A    between atoms: _152  and  _153
REMARK   68  A    between atoms: _155  and  _157
REMARK   69  A    between atoms: _157  and  _158
REMARK   70  A    between atoms: _160  and  _162
REMARK   71  A    between atoms: _162  and  _163
REMARK   72  A    between atoms: _162  and  _165
REMARK   73  A    between atoms: _165  and  _166
REMARK   74  A    between atoms: _172  and  _174
REMARK   75  A    between atoms: _174  and  _175
REMARK   76  A    between atoms: _174  and  _177
REMARK   77  A    between atoms: _177  and  _178
REMARK   78  A    between atoms: _181  and  _183
REMARK   79  A    between atoms: _183  and  _184
REMARK   80  A    between atoms: _183  and  _186
REMARK   81  A    between atoms: _189  and  _191
REMARK   82  A    between atoms: _191  and  _192
REMARK   83  A    between atoms: _191  and  _194
REMARK   84  A    between atoms: _194  and  _195
REMARK   85  A    between atoms: _198  and  _200
REMARK   86  A    between atoms: _200  and  _201
REMARK   87  A    between atoms: _200  and  _203
REMARK   88  A    between atoms: _203  and  _204
REMARK   89  A    between atoms: _208  and  _209
REMARK   90  A    between atoms: _214  and  _216
REMARK   91  A    between atoms: _216  and  _217
REMARK   92  A    between atoms: _216  and  _219
REMARK   93  A    between atoms: _222  and  _224
REMARK   94  A    between atoms: _224  and  _225
REMARK   95  A    between atoms: _224  and  _227
REMARK   96  A    between atoms: _227  and  _228
REMARK   97  A    between atoms: _233  and  _235
REMARK   98  A    between atoms: _235  and  _236
REMARK   99  A    between atoms: _235  and  _238
REMARK  100  A    between atoms: _238  and  _239
REMARK  101  A    between atoms: _242  and  _244
REMARK  102  A    between atoms: _244  and  _245
REMARK  103  A    between atoms: _244  and  _247
REMARK  104  A    between atoms: _247  and  _248
REMARK  105  A    between atoms: _251  and  _253
REMARK  106  A    between atoms: _253  and  _254
REMARK  107  A    between atoms: _256  and  _258
REMARK  108  A    between atoms: _258  and  _259
REMARK  109  A    between atoms: _258  and  _261
REMARK  110  A    between atoms: _261  and  _262
REMARK  111  A    between atoms: _262  and  _263
REMARK  112  A    between atoms: _263  and  _264
REMARK  113  A    between atoms: _273  and  _275
REMARK  114  A    between atoms: _275  and  _276
REMARK  115  A    between atoms: _275  and  _278
REMARK  116  A    between atoms: _278  and  _279
REMARK  117  A    between atoms: _284  and  _286
REMARK  118  A    between atoms: _286  and  _287
REMARK  119  A    between atoms: _286  and  _289
REMARK  120  A    between atoms: _289  and  _290
REMARK  121  A    between atoms: _290  and  _291
REMARK  122  A    between atoms: _291  and  _292
REMARK  123  A    between atoms: _301  and  _303
REMARK  124  A    between atoms: _303  and  _304
REMARK  125  A    between atoms: _303  and  _306
REMARK  126  A    between atoms: _306  and  _307
REMARK  127  A    between atoms: _310  and  _312
REMARK  128  A    between atoms: _312  and  _313
REMARK  129  A    between atoms: _312  and  _315
REMARK  130  A    between atoms: _315  and  _316
REMARK  131  A    between atoms: _319  and  _321
REMARK  132  A    between atoms: _321  and  _322
REMARK  133  A    between atoms: _321  and  _324
REMARK  134  A    between atoms: _324  and  _325
REMARK  135  A    between atoms: _328  and  _330
REMARK  136  A    between atoms: _330  and  _331
REMARK  137  A    between atoms: _330  and  _333
REMARK  138  A    between atoms: _333  and  _334
REMARK  139  A    between atoms: _337  and  _339
REMARK  140  A    between atoms: _339  and  _340
REMARK  141  A    between atoms: _342  and  _344
REMARK  142  A    between atoms: _344  and  _345
REMARK  143  A    between atoms: _348  and  _350
REMARK  144  A    between atoms: _350  and  _351
REMARK  145  A    between atoms: _350  and  _353
REMARK  146  A    between atoms: _353  and  _354
REMARK  147  A    between atoms: _357  and  _359
REMARK  148  A    between atoms: _359  and  _360
REMARK  149  A    between atoms: _359  and  _362
REMARK  150  A    between atoms: _362  and  _363
REMARK  151  A    between atoms: _366  and  _368
REMARK  152  A    between atoms: _368  and  _369
REMARK  153  A    between atoms: _368  and  _371
REMARK  154  A    between atoms: _371  and  _372
REMARK  155  A    between atoms: _375  and  _377
REMARK  156  A    between atoms: _377  and  _378
REMARK  157  A    between atoms: _377  and  _380
REMARK  158  A    between atoms: _383  and  _385
REMARK  159  A    between atoms: _385  and  _386
REMARK  160  A    between atoms: _385  and  _388
REMARK  161  A    between atoms: _388  and  _389
REMARK  162  A    between atoms: _392  and  _394
REMARK  163  A    between atoms: _394  and  _395
REMARK  164  A    between atoms: _394  and  _397
REMARK  165  A    between atoms: _397  and  _398
REMARK  166  A    between atoms: _398  and  _399
REMARK  167  A    between atoms: _399  and  _400
REMARK  168  A    between atoms: _400  and  _401
REMARK  169  A    between atoms: _405  and  _407
REMARK  170  A    between atoms: _407  and  _408
REMARK  171  A    between atoms: _407  and  _410
REMARK  172  A    between atoms: _410  and  _411
REMARK  173  A    between atoms: _414  and  _416
REMARK  174  A    between atoms: _416  and  _417
REMARK  175  A    between atoms: _419  and  _421
REMARK  176  A    between atoms: _421  and  _422
REMARK  177  A    between atoms: _424  and  _426
REMARK  178  A    between atoms: _426  and  _427
REMARK  179  A    between atoms: _426  and  _429
REMARK  180  A    between atoms: _429  and  _430
REMARK  181  A    between atoms: _433  and  _435
REMARK  182  A    between atoms: _435  and  _436
REMARK  183  A    between atoms: _438  and  _440
REMARK  184  A    between atoms: _440  and  _441
REMARK  185  A    between atoms: _443  and  _445
REMARK  186  A    between atoms: _445  and  _446
REMARK  187  A    between atoms: _445  and  _448
REMARK  188  A    between atoms: _448  and  _449
REMARK  189  A    between atoms: _455  and  _457
REMARK  190  A    between atoms: _457  and  _458
REMARK  191  A    between atoms: _457  and  _460
REMARK  192  A    between atoms: _460  and  _461
REMARK  193  A    between atoms: _464  and  _466
REMARK  194  A    between atoms: _466  and  _467
REMARK  195  A    between atoms: _466  and  _469
REMARK  196  A    between atoms: _472  and  _474
REMARK  197  A    between atoms: _474  and  _475
REMARK  198  A    between atoms: _474  and  _477
REMARK  199  A    between atoms: _477  and  _478
REMARK  200  A    between atoms: _482  and  _483
REMARK  201  A    between atoms: _488  and  _490
REMARK  202  A    between atoms: _490  and  _491
REMARK  203  A    between atoms: _490  and  _493
REMARK  204  A    between atoms: _493  and  _494
REMARK  205  A    between atoms: _498  and  _499
REMARK  206  A    between atoms: _504  and  _506
REMARK  207  A    between atoms: _506  and  _507
REMARK  208  A    between atoms: _506  and  _509
REMARK  209  A    between atoms: _512  and  _514
REMARK  210  A    between atoms: _514  and  _515
REMARK  211  A    between atoms: _514  and  _517
REMARK  212  A    between atoms: _517  and  _518
REMARK  213  A    between atoms: _523  and  _525
REMARK  214  A    between atoms: _525  and  _526
REMARK  215  A    between atoms: _525  and  _528
REMARK  216  A    between atoms: _528  and  _529
REMARK  217  A    between atoms: _532  and  _534
REMARK  218  A    between atoms: _534  and  _535
REMARK  219  A    between atoms: _534  and  _537
REMARK  220  A    between atoms: _537  and  _538
REMARK  221  A    between atoms: _541  and  _543
REMARK  222  A    between atoms: _543  and  _544
REMARK  223  A    between atoms: _546  and  _548
REMARK  224  A    between atoms: _548  and  _549
REMARK  225  A    between atoms: _548  and  _551
REMARK  226  A    between atoms: _551  and  _552
REMARK  227  A    between atoms: _552  and  _553
REMARK  228  A    between atoms: _553  and  _554
REMARK  229  A    between atoms: _563  and  _565
REMARK  230  A    between atoms: _565  and  _566
REMARK  231  A    between atoms: _565  and  _568
REMARK  232  A    between atoms: _568  and  _569
REMARK                            x       y       z     vdW  Elec       q    Type
REMARK                         _______ _______ _______ _____ _____    ______ ____
ROOT
ATOM      1  O   HOH     1     -12.110  17.179 -13.102  0.00  0.00    +0.000 OA
ENDROOT
TORSDOF 0
REMARK  Name = ../refined-set-2016/1m0b/1m0b_pocket.pdb
REMARK  232 active torsions:
REMARK  status: ('A' for Active; 'I' for Inactive)
REMARK    1  A    between atoms: _1  and  _3
REMARK    2  A    between atoms: _3  and  _4
REMARK    3  A    between atoms: _3  and  _6
REMARK    4  A    between atoms: _6  and  _7
REMARK    5  A    between atoms: _7  and  _8
REMARK    6  A    between atoms: _8  and  _9
REMARK    7  A    between atoms: _18  and  _20
REMARK    8  A    between atoms: _20  and  _21
REMARK    9  A    between atoms: _20  and  _23
REMARK   10  A    between atoms: _23  and  _24
REMARK   11  A    between atoms: _27  and  _29
REMARK   12  A    between atoms: _29  and  _30
REMARK   13  A    between atoms: _29  and  _32
REMARK   14  A    between atoms: _32  and  _33
REMARK   15  A    between atoms: _36  and  _38
REMARK   16  A    between atoms: _38  and  _39
REMARK   17  A    between atoms: _38  and  _41
REMARK   18  A    between atoms: _41  and  _42
REMARK   19  A    between atoms: _45  and  _47
REMARK   20  A    between atoms: _47  and  _48
REMARK   21  A    between atoms: _47  and  _50
REMARK   22  A    between atoms: _50  and  _51
REMARK   23  A    between atoms: _54  and  _56
REMARK   24  A    between atoms: _56  and  _57
REMARK   25  A    between atoms: _59  and  _61
REMARK   26  A    between atoms: _61  and  _62
REMARK   27  A    between atoms: _65  and  _67
REMARK   28  A    between atoms: _67  and  _68
REMARK   29  A    between atoms: _67  and  _70
REMARK   30  A    between atoms: _70  and  _71
REMARK   31  A    between atoms: _74  and  _76
REMARK   32  A    between atoms: _76  and  _77
REMARK   33  A    between atoms: _76  and  _79
REMARK   34  A    between atoms: _79  and  _80
REMARK   35  A    between atoms: _83  and  _85
REMARK   36  A    between atoms: _85  and  _86
REMARK   37  A    between atoms: _85  and  _88
REMARK   38  A    between atoms: _88  and  _89
REMARK   39  A    between atoms: _92  and  _94
REMARK   40  A    between atoms: _94  and  _95
REMARK   41  A    between atoms: _94  and  _97
REMARK   42  A    between atoms: _100  and  _102
REMARK   43  A    between atoms: _102  and  _103
REMARK   44  A    between atoms: _102  and  _105
REMARK   45  A    between atoms: _105  and  _106
REMARK   46  A    between atoms: _106  and  _107
REMARK   47  A    between atoms: _107  and  _108
REMARK   48  A    between atoms: _108  and  _109
REMARK   49  A    between atoms: _113  and  _115
REMARK   50  A    between atoms: _115  and  _116
REMARK   51  A    between atoms: _115  and  _118
REMARK   52  A    between atoms: _118  and  _119
REMARK   53  A    between atoms: _119  and  _120
REMARK   54  A    between atoms: _122  and  _124
REMARK   55  A    between atoms: _124  and  _125
REMARK   56  A    between atoms: _124  and  _127
REMARK   57  A    between atoms: _127  and  _128
REMARK   58  A    between atoms: _131  and  _133
REMARK   59  A    between atoms: _133  and  _134
REMARK   60  A    between atoms: _136  and  _138
REMARK   61  A    between atoms: _138  and  _139
REMARK   62  A    between atoms: _141  and  _143
REMARK   63  A    between atoms: _143  and  _144
REMARK   64  A    between atoms: _143  and  _146
REMARK   65  A    between atoms: _146  and  _147
REMARK   66  A    between atoms: _150  and  _152
REMARK   67  A    between atoms: _152  and  _153
REMARK   68  A    between atoms: _155  and  _157
REMARK   69  A    between atoms: _157  and  _158
REMARK   70  A    between atoms: _160  and  _162
REMARK   71  A    between atoms: _162  and  _163
REMARK   72  A    between atoms: _162  and  _165
REMARK   73  A    between atoms: _165  and  _166
REMARK   74  A    between atoms: _172  and  _174
REMARK   75  A    between atoms: _174  and  _175
REMARK   76  A    between atoms: _174  and  _177
REMARK   77  A    between atoms: _177  and  _178
REMARK   78  A    between atoms: _181  and  _183
REMARK   79  A    between atoms: _183  and  _184
REMARK   80  A    between atoms: _183  and  _186
REMARK   81  A    between atoms: _189  and  _191
REMARK   82  A    between atoms: _191  and  _192
REMARK   83  A    between atoms: _191  and  _194
REMARK   84  A    between atoms: _194  and  _195
REMARK   85  A    between atoms: _198  and  _200
REMARK   86  A    between atoms: _200  and  _201
REMARK   87  A    between atoms: _200  and  _203
REMARK   88  A    between atoms: _203  and  _204
REMARK   89  A    between atoms: _208  and  _209
REMARK   90  A    between atoms: _214  and  _216
REMARK   91  A    between atoms: _216  and  _217
REMARK   92  A    between atoms: _216  and  _219
REMARK   93  A    between atoms: _222  and  _224
REMARK   94  A    between atoms: _224  and  _225
REMARK   95  A    between atoms: _224  and  _227
REMARK   96  A    between atoms: _227  and  _228
REMARK   97  A    between atoms: _233  and  _235
REMARK   98  A    between atoms: _235  and  _236
REMARK   99  A    between atoms: _235  and  _238
REMARK  100  A    between atoms: _238  and  _239
REMARK  101  A    between atoms: _242  and  _244
REMARK  102  A    between atoms: _244  and  _245
REMARK  103  A    between atoms: _244  and  _247
REMARK  104  A    between atoms: _247  and  _248
REMARK  105  A    between atoms: _251  and  _253
REMARK  106  A    between atoms: _253  and  _254
REMARK  107  A    between atoms: _256  and  _258
REMARK  108  A    between atoms: _258  and  _259
REMARK  109  A    between atoms: _258  and  _261
REMARK  110  A    between atoms: _261  and  _262
REMARK  111  A    between atoms: _262  and  _263
REMARK  112  A    between atoms: _263  and  _264
REMARK  113  A    between atoms: _273  and  _275
REMARK  114  A    between atoms: _275  and  _276
REMARK  115  A    between atoms: _275  and  _278
REMARK  116  A    between atoms: _278  and  _279
REMARK  117  A    between atoms: _284  and  _286
REMARK  118  A    between atoms: _286  and  _287
REMARK  119  A    between atoms: _286  and  _289
REMARK  120  A    between atoms: _289  and  _290
REMARK  121  A    between atoms: _290  and  _291
REMARK  122  A    between atoms: _291  and  _292
REMARK  123  A    between atoms: _301  and  _303
REMARK  124  A    between atoms: _303  and  _304
REMARK  125  A    between atoms: _303  and  _306
REMARK  126  A    between atoms: _306  and  _307
REMARK  127  A    between atoms: _310  and  _312
REMARK  128  A    between atoms: _312  and  _313
REMARK  129  A    between atoms: _312  and  _315
REMARK  130  A    between atoms: _315  and  _316
REMARK  131  A    between atoms: _319  and  _321
REMARK  132  A    between atoms: _321  and  _322
REMARK  133  A    between atoms: _321  and  _324
REMARK  134  A    between atoms: _324  and  _325
REMARK  135  A    between atoms: _328  and  _330
REMARK  136  A    between atoms: _330  and  _331
REMARK  137  A    between atoms: _330  and  _333
REMARK  138  A    between atoms: _333  and  _334
REMARK  139  A    between atoms: _337  and  _339
REMARK  140  A    between atoms: _339  and  _340
REMARK  141  A    between atoms: _342  and  _344
REMARK  142  A    between atoms: _344  and  _345
REMARK  143  A    between atoms: _348  and  _350
REMARK  144  A    between atoms: _350  and  _351
REMARK  145  A    between atoms: _350  and  _353
REMARK  146  A    between atoms: _353  and  _354
REMARK  147  A    between atoms: _357  and  _359
REMARK  148  A    between atoms: _359  and  _360
REMARK  149  A    between atoms: _359  and  _362
REMARK  150  A    between atoms: _362  and  _363
REMARK  151  A    between atoms: _366  and  _368
REMARK  152  A    between atoms: _368  and  _369
REMARK  153  A    between atoms: _368  and  _371
REMARK  154  A    between atoms: _371  and  _372
REMARK  155  A    between atoms: _375  and  _377
REMARK  156  A    between atoms: _377  and  _378
REMARK  157  A    between atoms: _377  and  _380
REMARK  158  A    between atoms: _383  and  _385
REMARK  159  A    between atoms: _385  and  _386
REMARK  160  A    between atoms: _385  and  _388
REMARK  161  A    between atoms: _388  and  _389
REMARK  162  A    between atoms: _392  and  _394
REMARK  163  A    between atoms: _394  and  _395
REMARK  164  A    between atoms: _394  and  _397
REMARK  165  A    between atoms: _397  and  _398
REMARK  166  A    between atoms: _398  and  _399
REMARK  167  A    between atoms: _399  and  _400
REMARK  168  A    between atoms: _400  and  _401
REMARK  169  A    between atoms: _405  and  _407
REMARK  170  A    between atoms: _407  and  _408
REMARK  171  A    between atoms: _407  and  _410
REMARK  172  A    between atoms: _410  and  _411
REMARK  173  A    between atoms: _414  and  _416
REMARK  174  A    between atoms: _416  and  _417
REMARK  175  A    between atoms: _419  and  _421
REMARK  176  A    between atoms: _421  and  _422
REMARK  177  A    between atoms: _424  and  _426
REMARK  178  A    between atoms: _426  and  _427
REMARK  179  A    between atoms: _426  and  _429
REMARK  180  A    between atoms: _429  and  _430
REMARK  181  A    between atoms: _433  and  _435
REMARK  182  A    between atoms: _435  and  _436
REMARK  183  A    between atoms: _438  and  _440
REMARK  184  A    between atoms: _440  and  _441
REMARK  185  A    between atoms: _443  and  _445
REMARK  186  A    between atoms: _445  and  _446
REMARK  187  A    between atoms: _445  and  _448
REMARK  188  A    between atoms: _448  and  _449
REMARK  189  A    between atoms: _455  and  _457
REMARK  190  A    between atoms: _457  and  _458
REMARK  191  A    between atoms: _457  and  _460
REMARK  192  A    between atoms: _460  and  _461
REMARK  193  A    between atoms: _464  and  _466
REMARK  194  A    between atoms: _466  and  _467
REMARK  195  A    between atoms: _466  and  _469
REMARK  196  A    between atoms: _472  and  _474
REMARK  197  A    between atoms: _474  and  _475
REMARK  198  A    between atoms: _474  and  _477
REMARK  199  A    between atoms: _477  and  _478
REMARK  200  A    between atoms: _482  and  _483
REMARK  201  A    between atoms: _488  and  _490
REMARK  202  A    between atoms: _490  and  _491
REMARK  203  A    between atoms: _490  and  _493
REMARK  204  A    between atoms: _493  and  _494
REMARK  205  A    between atoms: _498  and  _499
REMARK  206  A    between atoms: _504  and  _506
REMARK  207  A    between atoms: _506  and  _507
REMARK  208  A    between atoms: _506  and  _509
REMARK  209  A    between atoms: _512  and  _514
REMARK  210  A    between atoms: _514  and  _515
REMARK  211  A    between atoms: _514  and  _517
REMARK  212  A    between atoms: _517  and  _518
REMARK  213  A    between atoms: _523  and  _525
REMARK  214  A    between atoms: _525  and  _526
REMARK  215  A    between atoms: _525  and  _528
REMARK  216  A    between atoms: _528  and  _529
REMARK  217  A    between atoms: _532  and  _534
REMARK  218  A    between atoms: _534  and  _535
REMARK  219  A    between atoms: _534  and  _537
REMARK  220  A    between atoms: _537  and  _538
REMARK  221  A    between atoms: _541  and  _543
REMARK  222  A    between atoms: _543  and  _544
REMARK  223  A    between atoms: _546  and  _548
REMARK  224  A    between atoms: _548  and  _549
REMARK  225  A    between atoms: _548  and  _551
REMARK  226  A    between atoms: _551  and  _552
REMARK  227  A    between atoms: _552  and  _553
REMARK  228  A    between atoms: _553  and  _554
REMARK  229  A    between atoms: _563  and  _565
REMARK  230  A    between atoms: _565  and  _566
REMARK  231  A    between atoms: _565  and  _568
REMARK  232  A    between atoms: _568  and  _569
REMARK                            x       y       z     vdW  Elec       q    Type
REMARK                         _______ _______ _______ _____ _____    ______ ____
ROOT
ATOM      1  O   HOH     1     -18.295  13.603   9.481  0.00  0.00    +0.000 OA
ENDROOT
TORSDOF 0
REMARK  Name = ../refined-set-2016/1m0b/1m0b_pocket.pdb
REMARK  232 active torsions:
REMARK  status: ('A' for Active; 'I' for Inactive)
REMARK    1  A    between atoms: _1  and  _3
REMARK    2  A    between atoms: _3  and  _4
REMARK    3  A    between atoms: _3  and  _6
REMARK    4  A    between atoms: _6  and  _7
REMARK    5  A    between atoms: _7  and  _8
REMARK    6  A    between atoms: _8  and  _9
REMARK    7  A    between atoms: _18  and  _20
REMARK    8  A    between atoms: _20  and  _21
REMARK    9  A    between atoms: _20  and  _23
REMARK   10  A    between atoms: _23  and  _24
REMARK   11  A    between atoms: _27  and  _29
REMARK   12  A    between atoms: _29  and  _30
REMARK   13  A    between atoms: _29  and  _32
REMARK   14  A    between atoms: _32  and  _33
REMARK   15  A    between atoms: _36  and  _38
REMARK   16  A    between atoms: _38  and  _39
REMARK   17  A    between atoms: _38  and  _41
REMARK   18  A    between atoms: _41  and  _42
REMARK   19  A    between atoms: _45  and  _47
REMARK   20  A    between atoms: _47  and  _48
REMARK   21  A    between atoms: _47  and  _50
REMARK   22  A    between atoms: _50  and  _51
REMARK   23  A    between atoms: _54  and  _56
REMARK   24  A    between atoms: _56  and  _57
REMARK   25  A    between atoms: _59  and  _61
REMARK   26  A    between atoms: _61  and  _62
REMARK   27  A    between atoms: _65  and  _67
REMARK   28  A    between atoms: _67  and  _68
REMARK   29  A    between atoms: _67  and  _70
REMARK   30  A    between atoms: _70  and  _71
REMARK   31  A    between atoms: _74  and  _76
REMARK   32  A    between atoms: _76  and  _77
REMARK   33  A    between atoms: _76  and  _79
REMARK   34  A    between atoms: _79  and  _80
REMARK   35  A    between atoms: _83  and  _85
REMARK   36  A    between atoms: _85  and  _86
REMARK   37  A    between atoms: _85  and  _88
REMARK   38  A    between atoms: _88  and  _89
REMARK   39  A    between atoms: _92  and  _94
REMARK   40  A    between atoms: _94  and  _95
REMARK   41  A    between atoms: _94  and  _97
REMARK   42  A    between atoms: _100  and  _102
REMARK   43  A    between atoms: _102  and  _103
REMARK   44  A    between atoms: _102  and  _105
REMARK   45  A    between atoms: _105  and  _106
REMARK   46  A    between atoms: _106  and  _107
REMARK   47  A    between atoms: _107  and  _108
REMARK   48  A    between atoms: _108  and  _109
REMARK   49  A    between atoms: _113  and  _115
REMARK   50  A    between atoms: _115  and  _116
REMARK   51  A    between atoms: _115  and  _118
REMARK   52  A    between atoms: _118  and  _119
REMARK   53  A    between atoms: _119  and  _120
REMARK   54  A    between atoms: _122  and  _124
REMARK   55  A    between atoms: _124  and  _125
REMARK   56  A    between atoms: _124  and  _127
REMARK   57  A    between atoms: _127  and  _128
REMARK   58  A    between atoms: _131  and  _133
REMARK   59  A    between atoms: _133  and  _134
REMARK   60  A    between atoms: _136  and  _138
REMARK   61  A    between atoms: _138  and  _139
REMARK   62  A    between atoms: _141  and  _143
REMARK   63  A    between atoms: _143  and  _144
REMARK   64  A    between atoms: _143  and  _146
REMARK   65  A    between atoms: _146  and  _147
REMARK   66  A    between atoms: _150  and  _152
REMARK   67  A    between atoms: _152  and  _153
REMARK   68  A    between atoms: _155  and  _157
REMARK   69  A    between atoms: _157  and  _158
REMARK   70  A    between atoms: _160  and  _162
REMARK   71  A    between atoms: _162  and  _163
REMARK   72  A    between atoms: _162  and  _165
REMARK   73  A    between atoms: _165  and  _166
REMARK   74  A    between atoms: _172  and  _174
REMARK   75  A    between atoms: _174  and  _175
REMARK   76  A    between atoms: _174  and  _177
REMARK   77  A    between atoms: _177  and  _178
REMARK   78  A    between atoms: _181  and  _183
REMARK   79  A    between atoms: _183  and  _184
REMARK   80  A    between atoms: _183  and  _186
REMARK   81  A    between atoms: _189  and  _191
REMARK   82  A    between atoms: _191  and  _192
REMARK   83  A    between atoms: _191  and  _194
REMARK   84  A    between atoms: _194  and  _195
REMARK   85  A    between atoms: _198  and  _200
REMARK   86  A    between atoms: _200  and  _201
REMARK   87  A    between atoms: _200  and  _203
REMARK   88  A    between atoms: _203  and  _204
REMARK   89  A    between atoms: _208  and  _209
REMARK   90  A    between atoms: _214  and  _216
REMARK   91  A    between atoms: _216  and  _217
REMARK   92  A    between atoms: _216  and  _219
REMARK   93  A    between atoms: _222  and  _224
REMARK   94  A    between atoms: _224  and  _225
REMARK   95  A    between atoms: _224  and  _227
REMARK   96  A    between atoms: _227  and  _228
REMARK   97  A    between atoms: _233  and  _235
REMARK   98  A    between atoms: _235  and  _236
REMARK   99  A    between atoms: _235  and  _238
REMARK  100  A    between atoms: _238  and  _239
REMARK  101  A    between atoms: _242  and  _244
REMARK  102  A    between atoms: _244  and  _245
REMARK  103  A    between atoms: _244  and  _247
REMARK  104  A    between atoms: _247  and  _248
REMARK  105  A    between atoms: _251  and  _253
REMARK  106  A    between atoms: _253  and  _254
REMARK  107  A    between atoms: _256  and  _258
REMARK  108  A    between atoms: _258  and  _259
REMARK  109  A    between atoms: _258  and  _261
REMARK  110  A    between atoms: _261  and  _262
REMARK  111  A    between atoms: _262  and  _263
REMARK  112  A    between atoms: _263  and  _264
REMARK  113  A    between atoms: _273  and  _275
REMARK  114  A    between atoms: _275  and  _276
REMARK  115  A    between atoms: _275  and  _278
REMARK  116  A    between atoms: _278  and  _279
REMARK  117  A    between atoms: _284  and  _286
REMARK  118  A    between atoms: _286  and  _287
REMARK  119  A    between atoms: _286  and  _289
REMARK  120  A    between atoms: _289  and  _290
REMARK  121  A    between atoms: _290  and  _291
REMARK  122  A    between atoms: _291  and  _292
REMARK  123  A    between atoms: _301  and  _303
REMARK  124  A    between atoms: _303  and  _304
REMARK  125  A    between atoms: _303  and  _306
REMARK  126  A    between atoms: _306  and  _307
REMARK  127  A    between atoms: _310  and  _312
REMARK  128  A    between atoms: _312  and  _313
REMARK  129  A    between atoms: _312  and  _315
REMARK  130  A    between atoms: _315  and  _316
REMARK  131  A    between atoms: _319  and  _321
REMARK  132  A    between atoms: _321  and  _322
REMARK  133  A    between atoms: _321  and  _324
REMARK  134  A    between atoms: _324  and  _325
REMARK  135  A    between atoms: _328  and  _330
REMARK  136  A    between atoms: _330  and  _331
REMARK  137  A    between atoms: _330  and  _333
REMARK  138  A    between atoms: _333  and  _334
REMARK  139  A    between atoms: _337  and  _339
REMARK  140  A    between atoms: _339  and  _340
REMARK  141  A    between atoms: _342  and  _344
REMARK  142  A    between atoms: _344  and  _345
REMARK  143  A    between atoms: _348  and  _350
REMARK  144  A    between atoms: _350  and  _351
REMARK  145  A    between atoms: _350  and  _353
REMARK  146  A    between atoms: _353  and  _354
REMARK  147  A    between atoms: _357  and  _359
REMARK  148  A    between atoms: _359  and  _360
REMARK  149  A    between atoms: _359  and  _362
REMARK  150  A    between atoms: _362  and  _363
REMARK  151  A    between atoms: _366  and  _368
REMARK  152  A    between atoms: _368  and  _369
REMARK  153  A    between atoms: _368  and  _371
REMARK  154  A    between atoms: _371  and  _372
REMARK  155  A    between atoms: _375  and  _377
REMARK  156  A    between atoms: _377  and  _378
REMARK  157  A    between atoms: _377  and  _380
REMARK  158  A    between atoms: _383  and  _385
REMARK  159  A    between atoms: _385  and  _386
REMARK  160  A    between atoms: _385  and  _388
REMARK  161  A    between atoms: _388  and  _389
REMARK  162  A    between atoms: _392  and  _394
REMARK  163  A    between atoms: _394  and  _395
REMARK  164  A    between atoms: _394  and  _397
REMARK  165  A    between atoms: _397  and  _398
REMARK  166  A    between atoms: _398  and  _399
REMARK  167  A    between atoms: _399  and  _400
REMARK  168  A    between atoms: _400  and  _401
REMARK  169  A    between atoms: _405  and  _407
REMARK  170  A    between atoms: _407  and  _408
REMARK  171  A    between atoms: _407  and  _410
REMARK  172  A    between atoms: _410  and  _411
REMARK  173  A    between atoms: _414  and  _416
REMARK  174  A    between atoms: _416  and  _417
REMARK  175  A    between atoms: _419  and  _421
REMARK  176  A    between atoms: _421  and  _422
REMARK  177  A    between atoms: _424  and  _426
REMARK  178  A    between atoms: _426  and  _427
REMARK  179  A    between atoms: _426  and  _429
REMARK  180  A    between atoms: _429  and  _430
REMARK  181  A    between atoms: _433  and  _435
REMARK  182  A    between atoms: _435  and  _436
REMARK  183  A    between atoms: _438  and  _440
REMARK  184  A    between atoms: _440  and  _441
REMARK  185  A    between atoms: _443  and  _445
REMARK  186  A    between atoms: _445  and  _446
REMARK  187  A    between atoms: _445  and  _448
REMARK  188  A    between atoms: _448  and  _449
REMARK  189  A    between atoms: _455  and  _457
REMARK  190  A    between atoms: _457  and  _458
REMARK  191  A    between atoms: _457  and  _460
REMARK  192  A    between atoms: _460  and  _461
REMARK  193  A    between atoms: _464  and  _466
REMARK  194  A    between atoms: _466  and  _467
REMARK  195  A    between atoms: _466  and  _469
REMARK  196  A    between atoms: _472  and  _474
REMARK  197  A    between atoms: _474  and  _475
REMARK  198  A    between atoms: _474  and  _477
REMARK  199  A    between atoms: _477  and  _478
REMARK  200  A    between atoms: _482  and  _483
REMARK  201  A    between atoms: _488  and  _490
REMARK  202  A    between atoms: _490  and  _491
REMARK  203  A    between atoms: _490  and  _493
REMARK  204  A    between atoms: _493  and  _494
REMARK  205  A    between atoms: _498  and  _499
REMARK  206  A    between atoms: _504  and  _506
REMARK  207  A    between atoms: _506  and  _507
REMARK  208  A    between atoms: _506  and  _509
REMARK  209  A    between atoms: _512  and  _514
REMARK  210  A    between atoms: _514  and  _515
REMARK  211  A    between atoms: _514  and  _517
REMARK  212  A    between atoms: _517  and  _518
REMARK  213  A    between atoms: _523  and  _525
REMARK  214  A    between atoms: _525  and  _526
REMARK  215  A    between atoms: _525  and  _528
REMARK  216  A    between atoms: _528  and  _529
REMARK  217  A    between atoms: _532  and  _534
REMARK  218  A    between atoms: _534  and  _535
REMARK  219  A    between atoms: _534  and  _537
REMARK  220  A    between atoms: _537  and  _538
REMARK  221  A    between atoms: _541  and  _543
REMARK  222  A    between atoms: _543  and  _544
REMARK  223  A    between atoms: _546  and  _548
REMARK  224  A    between atoms: _548  and  _549
REMARK  225  A    between atoms: _548  and  _551
REMARK  226  A    between atoms: _551  and  _552
REMARK  227  A    between atoms: _552  and  _553
REMARK  228  A    between atoms: _553  and  _554
REMARK  229  A    between atoms: _563  and  _565
REMARK  230  A    between atoms: _565  and  _566
REMARK  231  A    between atoms: _565  and  _568
REMARK  232  A    between atoms: _568  and  _569
REMARK                            x       y       z     vdW  Elec       q    Type
REMARK                         _______ _______ _______ _____ _____    ______ ____
ROOT
ATOM      1  O   HOH     1      -6.419  21.497  -4.280  0.00  0.00    +0.000 OA
ENDROOT
TORSDOF 0
REMARK  Name = ../refined-set-2016/1m0b/1m0b_pocket.pdb
REMARK  232 active torsions:
REMARK  status: ('A' for Active; 'I' for Inactive)
REMARK    1  A    between atoms: _1  and  _3
REMARK    2  A    between atoms: _3  and  _4
REMARK    3  A    between atoms: _3  and  _6
REMARK    4  A    between atoms: _6  and  _7
REMARK    5  A    between atoms: _7  and  _8
REMARK    6  A    between atoms: _8  and  _9
REMARK    7  A    between atoms: _18  and  _20
REMARK    8  A    between atoms: _20  and  _21
REMARK    9  A    between atoms: _20  and  _23
REMARK   10  A    between atoms: _23  and  _24
REMARK   11  A    between atoms: _27  and  _29
REMARK   12  A    between atoms: _29  and  _30
REMARK   13  A    between atoms: _29  and  _32
REMARK   14  A    between atoms: _32  and  _33
REMARK   15  A    between atoms: _36  and  _38
REMARK   16  A    between atoms: _38  and  _39
REMARK   17  A    between atoms: _38  and  _41
REMARK   18  A    between atoms: _41  and  _42
REMARK   19  A    between atoms: _45  and  _47
REMARK   20  A    between atoms: _47  and  _48
REMARK   21  A    between atoms: _47  and  _50
REMARK   22  A    between atoms: _50  and  _51
REMARK   23  A    between atoms: _54  and  _56
REMARK   24  A    between atoms: _56  and  _57
REMARK   25  A    between atoms: _59  and  _61
REMARK   26  A    between atoms: _61  and  _62
REMARK   27  A    between atoms: _65  and  _67
REMARK   28  A    between atoms: _67  and  _68
REMARK   29  A    between atoms: _67  and  _70
REMARK   30  A    between atoms: _70  and  _71
REMARK   31  A    between atoms: _74  and  _76
REMARK   32  A    between atoms: _76  and  _77
REMARK   33  A    between atoms: _76  and  _79
REMARK   34  A    between atoms: _79  and  _80
REMARK   35  A    between atoms: _83  and  _85
REMARK   36  A    between atoms: _85  and  _86
REMARK   37  A    between atoms: _85  and  _88
REMARK   38  A    between atoms: _88  and  _89
REMARK   39  A    between atoms: _92  and  _94
REMARK   40  A    between atoms: _94  and  _95
REMARK   41  A    between atoms: _94  and  _97
REMARK   42  A    between atoms: _100  and  _102
REMARK   43  A    between atoms: _102  and  _103
REMARK   44  A    between atoms: _102  and  _105
REMARK   45  A    between atoms: _105  and  _106
REMARK   46  A    between atoms: _106  and  _107
REMARK   47  A    between atoms: _107  and  _108
REMARK   48  A    between atoms: _108  and  _109
REMARK   49  A    between atoms: _113  and  _115
REMARK   50  A    between atoms: _115  and  _116
REMARK   51  A    between atoms: _115  and  _118
REMARK   52  A    between atoms: _118  and  _119
REMARK   53  A    between atoms: _119  and  _120
REMARK   54  A    between atoms: _122  and  _124
REMARK   55  A    between atoms: _124  and  _125
REMARK   56  A    between atoms: _124  and  _127
REMARK   57  A    between atoms: _127  and  _128
REMARK   58  A    between atoms: _131  and  _133
REMARK   59  A    between atoms: _133  and  _134
REMARK   60  A    between atoms: _136  and  _138
REMARK   61  A    between atoms: _138  and  _139
REMARK   62  A    between atoms: _141  and  _143
REMARK   63  A    between atoms: _143  and  _144
REMARK   64  A    between atoms: _143  and  _146
REMARK   65  A    between atoms: _146  and  _147
REMARK   66  A    between atoms: _150  and  _152
REMARK   67  A    between atoms: _152  and  _153
REMARK   68  A    between atoms: _155  and  _157
REMARK   69  A    between atoms: _157  and  _158
REMARK   70  A    between atoms: _160  and  _162
REMARK   71  A    between atoms: _162  and  _163
REMARK   72  A    between atoms: _162  and  _165
REMARK   73  A    between atoms: _165  and  _166
REMARK   74  A    between atoms: _172  and  _174
REMARK   75  A    between atoms: _174  and  _175
REMARK   76  A    between atoms: _174  and  _177
REMARK   77  A    between atoms: _177  and  _178
REMARK   78  A    between atoms: _181  and  _183
REMARK   79  A    between atoms: _183  and  _184
REMARK   80  A    between atoms: _183  and  _186
REMARK   81  A    between atoms: _189  and  _191
REMARK   82  A    between atoms: _191  and  _192
REMARK   83  A    between atoms: _191  and  _194
REMARK   84  A    between atoms: _194  and  _195
REMARK   85  A    between atoms: _198  and  _200
REMARK   86  A    between atoms: _200  and  _201
REMARK   87  A    between atoms: _200  and  _203
REMARK   88  A    between atoms: _203  and  _204
REMARK   89  A    between atoms: _208  and  _209
REMARK   90  A    between atoms: _214  and  _216
REMARK   91  A    between atoms: _216  and  _217
REMARK   92  A    between atoms: _216  and  _219
REMARK   93  A    between atoms: _222  and  _224
REMARK   94  A    between atoms: _224  and  _225
REMARK   95  A    between atoms: _224  and  _227
REMARK   96  A    between atoms: _227  and  _228
REMARK   97  A    between atoms: _233  and  _235
REMARK   98  A    between atoms: _235  and  _236
REMARK   99  A    between atoms: _235  and  _238
REMARK  100  A    between atoms: _238  and  _239
REMARK  101  A    between atoms: _242  and  _244
REMARK  102  A    between atoms: _244  and  _245
REMARK  103  A    between atoms: _244  and  _247
REMARK  104  A    between atoms: _247  and  _248
REMARK  105  A    between atoms: _251  and  _253
REMARK  106  A    between atoms: _253  and  _254
REMARK  107  A    between atoms: _256  and  _258
REMARK  108  A    between atoms: _258  and  _259
REMARK  109  A    between atoms: _258  and  _261
REMARK  110  A    between atoms: _261  and  _262
REMARK  111  A    between atoms: _262  and  _263
REMARK  112  A    between atoms: _263  and  _264
REMARK  113  A    between atoms: _273  and  _275
REMARK  114  A    between atoms: _275  and  _276
REMARK  115  A    between atoms: _275  and  _278
REMARK  116  A    between atoms: _278  and  _279
REMARK  117  A    between atoms: _284  and  _286
REMARK  118  A    between atoms: _286  and  _287
REMARK  119  A    between atoms: _286  and  _289
REMARK  120  A    between atoms: _289  and  _290
REMARK  121  A    between atoms: _290  and  _291
REMARK  122  A    between atoms: _291  and  _292
REMARK  123  A    between atoms: _301  and  _303
REMARK  124  A    between atoms: _303  and  _304
REMARK  125  A    between atoms: _303  and  _306
REMARK  126  A    between atoms: _306  and  _307
REMARK  127  A    between atoms: _310  and  _312
REMARK  128  A    between atoms: _312  and  _313
REMARK  129  A    between atoms: _312  and  _315
REMARK  130  A    between atoms: _315  and  _316
REMARK  131  A    between atoms: _319  and  _321
REMARK  132  A    between atoms: _321  and  _322
REMARK  133  A    between atoms: _321  and  _324
REMARK  134  A    between atoms: _324  and  _325
REMARK  135  A    between atoms: _328  and  _330
REMARK  136  A    between atoms: _330  and  _331
REMARK  137  A    between atoms: _330  and  _333
REMARK  138  A    between atoms: _333  and  _334
REMARK  139  A    between atoms: _337  and  _339
REMARK  140  A    between atoms: _339  and  _340
REMARK  141  A    between atoms: _342  and  _344
REMARK  142  A    between atoms: _344  and  _345
REMARK  143  A    between atoms: _348  and  _350
REMARK  144  A    between atoms: _350  and  _351
REMARK  145  A    between atoms: _350  and  _353
REMARK  146  A    between atoms: _353  and  _354
REMARK  147  A    between atoms: _357  and  _359
REMARK  148  A    between atoms: _359  and  _360
REMARK  149  A    between atoms: _359  and  _362
REMARK  150  A    between atoms: _362  and  _363
REMARK  151  A    between atoms: _366  and  _368
REMARK  152  A    between atoms: _368  and  _369
REMARK  153  A    between atoms: _368  and  _371
REMARK  154  A    between atoms: _371  and  _372
REMARK  155  A    between atoms: _375  and  _377
REMARK  156  A    between atoms: _377  and  _378
REMARK  157  A    between atoms: _377  and  _380
REMARK  158  A    between atoms: _383  and  _385
REMARK  159  A    between atoms: _385  and  _386
REMARK  160  A    between atoms: _385  and  _388
REMARK  161  A    between atoms: _388  and  _389
REMARK  162  A    between atoms: _392  and  _394
REMARK  163  A    between atoms: _394  and  _395
REMARK  164  A    between atoms: _394  and  _397
REMARK  165  A    between atoms: _397  and  _398
REMARK  166  A    between atoms: _398  and  _399
REMARK  167  A    between atoms: _399  and  _400
REMARK  168  A    between atoms: _400  and  _401
REMARK  169  A    between atoms: _405  and  _407
REMARK  170  A    between atoms: _407  and  _408
REMARK  171  A    between atoms: _407  and  _410
REMARK  172  A    between atoms: _410  and  _411
REMARK  173  A    between atoms: _414  and  _416
REMARK  174  A    between atoms: _416  and  _417
REMARK  175  A    between atoms: _419  and  _421
REMARK  176  A    between atoms: _421  and  _422
REMARK  177  A    between atoms: _424  and  _426
REMARK  178  A    between atoms: _426  and  _427
REMARK  179  A    between atoms: _426  and  _429
REMARK  180  A    between atoms: _429  and  _430
REMARK  181  A    between atoms: _433  and  _435
REMARK  182  A    between atoms: _435  and  _436
REMARK  183  A    between atoms: _438  and  _440
REMARK  184  A    between atoms: _440  and  _441
REMARK  185  A    between atoms: _443  and  _445
REMARK  186  A    between atoms: _445  and  _446
REMARK  187  A    between atoms: _445  and  _448
REMARK  188  A    between atoms: _448  and  _449
REMARK  189  A    between atoms: _455  and  _457
REMARK  190  A    between atoms: _457  and  _458
REMARK  191  A    between atoms: _457  and  _460
REMARK  192  A    between atoms: _460  and  _461
REMARK  193  A    between atoms: _464  and  _466
REMARK  194  A    between atoms: _466  and  _467
REMARK  195  A    between atoms: _466  and  _469
REMARK  196  A    between atoms: _472  and  _474
REMARK  197  A    between atoms: _474  and  _475
REMARK  198  A    between atoms: _474  and  _477
REMARK  199  A    between atoms: _477  and  _478
REMARK  200  A    between atoms: _482  and  _483
REMARK  201  A    between atoms: _488  and  _490
REMARK  202  A    between atoms: _490  and  _491
REMARK  203  A    between atoms: _490  and  _493
REMARK  204  A    between atoms: _493  and  _494
REMARK  205  A    between atoms: _498  and  _499
REMARK  206  A    between atoms: _504  and  _506
REMARK  207  A    between atoms: _506  and  _507
REMARK  208  A    between atoms: _506  and  _509
REMARK  209  A    between atoms: _512  and  _514
REMARK  210  A    between atoms: _514  and  _515
REMARK  211  A    between atoms: _514  and  _517
REMARK  212  A    between atoms: _517  and  _518
REMARK  213  A    between atoms: _523  and  _525
REMARK  214  A    between atoms: _525  and  _526
REMARK  215  A    between atoms: _525  and  _528
REMARK  216  A    between atoms: _528  and  _529
REMARK  217  A    between atoms: _532  and  _534
REMARK  218  A    between atoms: _534  and  _535
REMARK  219  A    between atoms: _534  and  _537
REMARK  220  A    between atoms: _537  and  _538
REMARK  221  A    between atoms: _541  and  _543
REMARK  222  A    between atoms: _543  and  _544
REMARK  223  A    between atoms: _546  and  _548
REMARK  224  A    between atoms: _548  and  _549
REMARK  225  A    between atoms: _548  and  _551
REMARK  226  A    between atoms: _551  and  _552
REMARK  227  A    between atoms: _552  and  _553
REMARK  228  A    between atoms: _553  and  _554
REMARK  229  A    between atoms: _563  and  _565
REMARK  230  A    between atoms: _565  and  _566
REMARK  231  A    between atoms: _565  and  _568
REMARK  232  A    between atoms: _568  and  _569
REMARK                            x       y       z     vdW  Elec       q    Type
REMARK                         _______ _______ _______ _____ _____    ______ ____
ROOT
ATOM      1  O   HOH     1      -9.054  22.844 -11.243  0.00  0.00    +0.000 OA
ENDROOT
TORSDOF 0
REMARK  Name = ../refined-set-2016/1m0b/1m0b_pocket.pdb
REMARK  232 active torsions:
REMARK  status: ('A' for Active; 'I' for Inactive)
REMARK    1  A    between atoms: _1  and  _3
REMARK    2  A    between atoms: _3  and  _4
REMARK    3  A    between atoms: _3  and  _6
REMARK    4  A    between atoms: _6  and  _7
REMARK    5  A    between atoms: _7  and  _8
REMARK    6  A    between atoms: _8  and  _9
REMARK    7  A    between atoms: _18  and  _20
REMARK    8  A    between atoms: _20  and  _21
REMARK    9  A    between atoms: _20  and  _23
REMARK   10  A    between atoms: _23  and  _24
REMARK   11  A    between atoms: _27  and  _29
REMARK   12  A    between atoms: _29  and  _30
REMARK   13  A    between atoms: _29  and  _32
REMARK   14  A    between atoms: _32  and  _33
REMARK   15  A    between atoms: _36  and  _38
REMARK   16  A    between atoms: _38  and  _39
REMARK   17  A    between atoms: _38  and  _41
REMARK   18  A    between atoms: _41  and  _42
REMARK   19  A    between atoms: _45  and  _47
REMARK   20  A    between atoms: _47  and  _48
REMARK   21  A    between atoms: _47  and  _50
REMARK   22  A    between atoms: _50  and  _51
REMARK   23  A    between atoms: _54  and  _56
REMARK   24  A    between atoms: _56  and  _57
REMARK   25  A    between atoms: _59  and  _61
REMARK   26  A    between atoms: _61  and  _62
REMARK   27  A    between atoms: _65  and  _67
REMARK   28  A    between atoms: _67  and  _68
REMARK   29  A    between atoms: _67  and  _70
REMARK   30  A    between atoms: _70  and  _71
REMARK   31  A    between atoms: _74  and  _76
REMARK   32  A    between atoms: _76  and  _77
REMARK   33  A    between atoms: _76  and  _79
REMARK   34  A    between atoms: _79  and  _80
REMARK   35  A    between atoms: _83  and  _85
REMARK   36  A    between atoms: _85  and  _86
REMARK   37  A    between atoms: _85  and  _88
REMARK   38  A    between atoms: _88  and  _89
REMARK   39  A    between atoms: _92  and  _94
REMARK   40  A    between atoms: _94  and  _95
REMARK   41  A    between atoms: _94  and  _97
REMARK   42  A    between atoms: _100  and  _102
REMARK   43  A    between atoms: _102  and  _103
REMARK   44  A    between atoms: _102  and  _105
REMARK   45  A    between atoms: _105  and  _106
REMARK   46  A    between atoms: _106  and  _107
REMARK   47  A    between atoms: _107  and  _108
REMARK   48  A    between atoms: _108  and  _109
REMARK   49  A    between atoms: _113  and  _115
REMARK   50  A    between atoms: _115  and  _116
REMARK   51  A    between atoms: _115  and  _118
REMARK   52  A    between atoms: _118  and  _119
REMARK   53  A    between atoms: _119  and  _120
REMARK   54  A    between atoms: _122  and  _124
REMARK   55  A    between atoms: _124  and  _125
REMARK   56  A    between atoms: _124  and  _127
REMARK   57  A    between atoms: _127  and  _128
REMARK   58  A    between atoms: _131  and  _133
REMARK   59  A    between atoms: _133  and  _134
REMARK   60  A    between atoms: _136  and  _138
REMARK   61  A    between atoms: _138  and  _139
REMARK   62  A    between atoms: _141  and  _143
REMARK   63  A    between atoms: _143  and  _144
REMARK   64  A    between atoms: _143  and  _146
REMARK   65  A    between atoms: _146  and  _147
REMARK   66  A    between atoms: _150  and  _152
REMARK   67  A    between atoms: _152  and  _153
REMARK   68  A    between atoms: _155  and  _157
REMARK   69  A    between atoms: _157  and  _158
REMARK   70  A    between atoms: _160  and  _162
REMARK   71  A    between atoms: _162  and  _163
REMARK   72  A    between atoms: _162  and  _165
REMARK   73  A    between atoms: _165  and  _166
REMARK   74  A    between atoms: _172  and  _174
REMARK   75  A    between atoms: _174  and  _175
REMARK   76  A    between atoms: _174  and  _177
REMARK   77  A    between atoms: _177  and  _178
REMARK   78  A    between atoms: _181  and  _183
REMARK   79  A    between atoms: _183  and  _184
REMARK   80  A    between atoms: _183  and  _186
REMARK   81  A    between atoms: _189  and  _191
REMARK   82  A    between atoms: _191  and  _192
REMARK   83  A    between atoms: _191  and  _194
REMARK   84  A    between atoms: _194  and  _195
REMARK   85  A    between atoms: _198  and  _200
REMARK   86  A    between atoms: _200  and  _201
REMARK   87  A    between atoms: _200  and  _203
REMARK   88  A    between atoms: _203  and  _204
REMARK   89  A    between atoms: _208  and  _209
REMARK   90  A    between atoms: _214  and  _216
REMARK   91  A    between atoms: _216  and  _217
REMARK   92  A    between atoms: _216  and  _219
REMARK   93  A    between atoms: _222  and  _224
REMARK   94  A    between atoms: _224  and  _225
REMARK   95  A    between atoms: _224  and  _227
REMARK   96  A    between atoms: _227  and  _228
REMARK   97  A    between atoms: _233  and  _235
REMARK   98  A    between atoms: _235  and  _236
REMARK   99  A    between atoms: _235  and  _238
REMARK  100  A    between atoms: _238  and  _239
REMARK  101  A    between atoms: _242  and  _244
REMARK  102  A    between atoms: _244  and  _245
REMARK  103  A    between atoms: _244  and  _247
REMARK  104  A    between atoms: _247  and  _248
REMARK  105  A    between atoms: _251  and  _253
REMARK  106  A    between atoms: _253  and  _254
REMARK  107  A    between atoms: _256  and  _258
REMARK  108  A    between atoms: _258  and  _259
REMARK  109  A    between atoms: _258  and  _261
REMARK  110  A    between atoms: _261  and  _262
REMARK  111  A    between atoms: _262  and  _263
REMARK  112  A    between atoms: _263  and  _264
REMARK  113  A    between atoms: _273  and  _275
REMARK  114  A    between atoms: _275  and  _276
REMARK  115  A    between atoms: _275  and  _278
REMARK  116  A    between atoms: _278  and  _279
REMARK  117  A    between atoms: _284  and  _286
REMARK  118  A    between atoms: _286  and  _287
REMARK  119  A    between atoms: _286  and  _289
REMARK  120  A    between atoms: _289  and  _290
REMARK  121  A    between atoms: _290  and  _291
REMARK  122  A    between atoms: _291  and  _292
REMARK  123  A    between atoms: _301  and  _303
REMARK  124  A    between atoms: _303  and  _304
REMARK  125  A    between atoms: _303  and  _306
REMARK  126  A    between atoms: _306  and  _307
REMARK  127  A    between atoms: _310  and  _312
REMARK  128  A    between atoms: _312  and  _313
REMARK  129  A    between atoms: _312  and  _315
REMARK  130  A    between atoms: _315  and  _316
REMARK  131  A    between atoms: _319  and  _321
REMARK  132  A    between atoms: _321  and  _322
REMARK  133  A    between atoms: _321  and  _324
REMARK  134  A    between atoms: _324  and  _325
REMARK  135  A    between atoms: _328  and  _330
REMARK  136  A    between atoms: _330  and  _331
REMARK  137  A    between atoms: _330  and  _333
REMARK  138  A    between atoms: _333  and  _334
REMARK  139  A    between atoms: _337  and  _339
REMARK  140  A    between atoms: _339  and  _340
REMARK  141  A    between atoms: _342  and  _344
REMARK  142  A    between atoms: _344  and  _345
REMARK  143  A    between atoms: _348  and  _350
REMARK  144  A    between atoms: _350  and  _351
REMARK  145  A    between atoms: _350  and  _353
REMARK  146  A    between atoms: _353  and  _354
REMARK  147  A    between atoms: _357  and  _359
REMARK  148  A    between atoms: _359  and  _360
REMARK  149  A    between atoms: _359  and  _362
REMARK  150  A    between atoms: _362  and  _363
REMARK  151  A    between atoms: _366  and  _368
REMARK  152  A    between atoms: _368  and  _369
REMARK  153  A    between atoms: _368  and  _371
REMARK  154  A    between atoms: _371  and  _372
REMARK  155  A    between atoms: _375  and  _377
REMARK  156  A    between atoms: _377  and  _378
REMARK  157  A    between atoms: _377  and  _380
REMARK  158  A    between atoms: _383  and  _385
REMARK  159  A    between atoms: _385  and  _386
REMARK  160  A    between atoms: _385  and  _388
REMARK  161  A    between atoms: _388  and  _389
REMARK  162  A    between atoms: _392  and  _394
REMARK  163  A    between atoms: _394  and  _395
REMARK  164  A    between atoms: _394  and  _397
REMARK  165  A    between atoms: _397  and  _398
REMARK  166  A    between atoms: _398  and  _399
REMARK  167  A    between atoms: _399  and  _400
REMARK  168  A    between atoms: _400  and  _401
REMARK  169  A    between atoms: _405  and  _407
REMARK  170  A    between atoms: _407  and  _408
REMARK  171  A    between atoms: _407  and  _410
REMARK  172  A    between atoms: _410  and  _411
REMARK  173  A    between atoms: _414  and  _416
REMARK  174  A    between atoms: _416  and  _417
REMARK  175  A    between atoms: _419  and  _421
REMARK  176  A    between atoms: _421  and  _422
REMARK  177  A    between atoms: _424  and  _426
REMARK  178  A    between atoms: _426  and  _427
REMARK  179  A    between atoms: _426  and  _429
REMARK  180  A    between atoms: _429  and  _430
REMARK  181  A    between atoms: _433  and  _435
REMARK  182  A    between atoms: _435  and  _436
REMARK  183  A    between atoms: _438  and  _440
REMARK  184  A    between atoms: _440  and  _441
REMARK  185  A    between atoms: _443  and  _445
REMARK  186  A    between atoms: _445  and  _446
REMARK  187  A    between atoms: _445  and  _448
REMARK  188  A    between atoms: _448  and  _449
REMARK  189  A    between atoms: _455  and  _457
REMARK  190  A    between atoms: _457  and  _458
REMARK  191  A    between atoms: _457  and  _460
REMARK  192  A    between atoms: _460  and  _461
REMARK  193  A    between atoms: _464  and  _466
REMARK  194  A    between atoms: _466  and  _467
REMARK  195  A    between atoms: _466  and  _469
REMARK  196  A    between atoms: _472  and  _474
REMARK  197  A    between atoms: _474  and  _475
REMARK  198  A    between atoms: _474  and  _477
REMARK  199  A    between atoms: _477  and  _478
REMARK  200  A    between atoms: _482  and  _483
REMARK  201  A    between atoms: _488  and  _490
REMARK  202  A    between atoms: _490  and  _491
REMARK  203  A    between atoms: _490  and  _493
REMARK  204  A    between atoms: _493  and  _494
REMARK  205  A    between atoms: _498  and  _499
REMARK  206  A    between atoms: _504  and  _506
REMARK  207  A    between atoms: _506  and  _507
REMARK  208  A    between atoms: _506  and  _509
REMARK  209  A    between atoms: _512  and  _514
REMARK  210  A    between atoms: _514  and  _515
REMARK  211  A    between atoms: _514  and  _517
REMARK  212  A    between atoms: _517  and  _518
REMARK  213  A    between atoms: _523  and  _525
REMARK  214  A    between atoms: _525  and  _526
REMARK  215  A    between atoms: _525  and  _528
REMARK  216  A    between atoms: _528  and  _529
REMARK  217  A    between atoms: _532  and  _534
REMARK  218  A    between atoms: _534  and  _535
REMARK  219  A    between atoms: _534  and  _537
REMARK  220  A    between atoms: _537  and  _538
REMARK  221  A    between atoms: _541  and  _543
REMARK  222  A    between atoms: _543  and  _544
REMARK  223  A    between atoms: _546  and  _548
REMARK  224  A    between atoms: _548  and  _549
REMARK  225  A    between atoms: _548  and  _551
REMARK  226  A    between atoms: _551  and  _552
REMARK  227  A    between atoms: _552  and  _553
REMARK  228  A    between atoms: _553  and  _554
REMARK  229  A    between atoms: _563  and  _565
REMARK  230  A    between atoms: _565  and  _566
REMARK  231  A    between atoms: _565  and  _568
REMARK  232  A    between atoms: _568  and  _569
REMARK                            x       y       z     vdW  Elec       q    Type
REMARK                         _______ _______ _______ _____ _____    ______ ____
ROOT
ATOM      1  O   HOH     1     -14.585  13.521  10.635  0.00  0.00    +0.000 OA
ENDROOT
TORSDOF 0
REMARK  Name = ../refined-set-2016/1m0b/1m0b_pocket.pdb
REMARK  232 active torsions:
REMARK  status: ('A' for Active; 'I' for Inactive)
REMARK    1  A    between atoms: _1  and  _3
REMARK    2  A    between atoms: _3  and  _4
REMARK    3  A    between atoms: _3  and  _6
REMARK    4  A    between atoms: _6  and  _7
REMARK    5  A    between atoms: _7  and  _8
REMARK    6  A    between atoms: _8  and  _9
REMARK    7  A    between atoms: _18  and  _20
REMARK    8  A    between atoms: _20  and  _21
REMARK    9  A    between atoms: _20  and  _23
REMARK   10  A    between atoms: _23  and  _24
REMARK   11  A    between atoms: _27  and  _29
REMARK   12  A    between atoms: _29  and  _30
REMARK   13  A    between atoms: _29  and  _32
REMARK   14  A    between atoms: _32  and  _33
REMARK   15  A    between atoms: _36  and  _38
REMARK   16  A    between atoms: _38  and  _39
REMARK   17  A    between atoms: _38  and  _41
REMARK   18  A    between atoms: _41  and  _42
REMARK   19  A    between atoms: _45  and  _47
REMARK   20  A    between atoms: _47  and  _48
REMARK   21  A    between atoms: _47  and  _50
REMARK   22  A    between atoms: _50  and  _51
REMARK   23  A    between atoms: _54  and  _56
REMARK   24  A    between atoms: _56  and  _57
REMARK   25  A    between atoms: _59  and  _61
REMARK   26  A    between atoms: _61  and  _62
REMARK   27  A    between atoms: _65  and  _67
REMARK   28  A    between atoms: _67  and  _68
REMARK   29  A    between atoms: _67  and  _70
REMARK   30  A    between atoms: _70  and  _71
REMARK   31  A    between atoms: _74  and  _76
REMARK   32  A    between atoms: _76  and  _77
REMARK   33  A    between atoms: _76  and  _79
REMARK   34  A    between atoms: _79  and  _80
REMARK   35  A    between atoms: _83  and  _85
REMARK   36  A    between atoms: _85  and  _86
REMARK   37  A    between atoms: _85  and  _88
REMARK   38  A    between atoms: _88  and  _89
REMARK   39  A    between atoms: _92  and  _94
REMARK   40  A    between atoms: _94  and  _95
REMARK   41  A    between atoms: _94  and  _97
REMARK   42  A    between atoms: _100  and  _102
REMARK   43  A    between atoms: _102  and  _103
REMARK   44  A    between atoms: _102  and  _105
REMARK   45  A    between atoms: _105  and  _106
REMARK   46  A    between atoms: _106  and  _107
REMARK   47  A    between atoms: _107  and  _108
REMARK   48  A    between atoms: _108  and  _109
REMARK   49  A    between atoms: _113  and  _115
REMARK   50  A    between atoms: _115  and  _116
REMARK   51  A    between atoms: _115  and  _118
REMARK   52  A    between atoms: _118  and  _119
REMARK   53  A    between atoms: _119  and  _120
REMARK   54  A    between atoms: _122  and  _124
REMARK   55  A    between atoms: _124  and  _125
REMARK   56  A    between atoms: _124  and  _127
REMARK   57  A    between atoms: _127  and  _128
REMARK   58  A    between atoms: _131  and  _133
REMARK   59  A    between atoms: _133  and  _134
REMARK   60  A    between atoms: _136  and  _138
REMARK   61  A    between atoms: _138  and  _139
REMARK   62  A    between atoms: _141  and  _143
REMARK   63  A    between atoms: _143  and  _144
REMARK   64  A    between atoms: _143  and  _146
REMARK   65  A    between atoms: _146  and  _147
REMARK   66  A    between atoms: _150  and  _152
REMARK   67  A    between atoms: _152  and  _153
REMARK   68  A    between atoms: _155  and  _157
REMARK   69  A    between atoms: _157  and  _158
REMARK   70  A    between atoms: _160  and  _162
REMARK   71  A    between atoms: _162  and  _163
REMARK   72  A    between atoms: _162  and  _165
REMARK   73  A    between atoms: _165  and  _166
REMARK   74  A    between atoms: _172  and  _174
REMARK   75  A    between atoms: _174  and  _175
REMARK   76  A    between atoms: _174  and  _177
REMARK   77  A    between atoms: _177  and  _178
REMARK   78  A    between atoms: _181  and  _183
REMARK   79  A    between atoms: _183  and  _184
REMARK   80  A    between atoms: _183  and  _186
REMARK   81  A    between atoms: _189  and  _191
REMARK   82  A    between atoms: _191  and  _192
REMARK   83  A    between atoms: _191  and  _194
REMARK   84  A    between atoms: _194  and  _195
REMARK   85  A    between atoms: _198  and  _200
REMARK   86  A    between atoms: _200  and  _201
REMARK   87  A    between atoms: _200  and  _203
REMARK   88  A    between atoms: _203  and  _204
REMARK   89  A    between atoms: _208  and  _209
REMARK   90  A    between atoms: _214  and  _216
REMARK   91  A    between atoms: _216  and  _217
REMARK   92  A    between atoms: _216  and  _219
REMARK   93  A    between atoms: _222  and  _224
REMARK   94  A    between atoms: _224  and  _225
REMARK   95  A    between atoms: _224  and  _227
REMARK   96  A    between atoms: _227  and  _228
REMARK   97  A    between atoms: _233  and  _235
REMARK   98  A    between atoms: _235  and  _236
REMARK   99  A    between atoms: _235  and  _238
REMARK  100  A    between atoms: _238  and  _239
REMARK  101  A    between atoms: _242  and  _244
REMARK  102  A    between atoms: _244  and  _245
REMARK  103  A    between atoms: _244  and  _247
REMARK  104  A    between atoms: _247  and  _248
REMARK  105  A    between atoms: _251  and  _253
REMARK  106  A    between atoms: _253  and  _254
REMARK  107  A    between atoms: _256  and  _258
REMARK  108  A    between atoms: _258  and  _259
REMARK  109  A    between atoms: _258  and  _261
REMARK  110  A    between atoms: _261  and  _262
REMARK  111  A    between atoms: _262  and  _263
REMARK  112  A    between atoms: _263  and  _264
REMARK  113  A    between atoms: _273  and  _275
REMARK  114  A    between atoms: _275  and  _276
REMARK  115  A    between atoms: _275  and  _278
REMARK  116  A    between atoms: _278  and  _279
REMARK  117  A    between atoms: _284  and  _286
REMARK  118  A    between atoms: _286  and  _287
REMARK  119  A    between atoms: _286  and  _289
REMARK  120  A    between atoms: _289  and  _290
REMARK  121  A    between atoms: _290  and  _291
REMARK  122  A    between atoms: _291  and  _292
REMARK  123  A    between atoms: _301  and  _303
REMARK  124  A    between atoms: _303  and  _304
REMARK  125  A    between atoms: _303  and  _306
REMARK  126  A    between atoms: _306  and  _307
REMARK  127  A    between atoms: _310  and  _312
REMARK  128  A    between atoms: _312  and  _313
REMARK  129  A    between atoms: _312  and  _315
REMARK  130  A    between atoms: _315  and  _316
REMARK  131  A    between atoms: _319  and  _321
REMARK  132  A    between atoms: _321  and  _322
REMARK  133  A    between atoms: _321  and  _324
REMARK  134  A    between atoms: _324  and  _325
REMARK  135  A    between atoms: _328  and  _330
REMARK  136  A    between atoms: _330  and  _331
REMARK  137  A    between atoms: _330  and  _333
REMARK  138  A    between atoms: _333  and  _334
REMARK  139  A    between atoms: _337  and  _339
REMARK  140  A    between atoms: _339  and  _340
REMARK  141  A    between atoms: _342  and  _344
REMARK  142  A    between atoms: _344  and  _345
REMARK  143  A    between atoms: _348  and  _350
REMARK  144  A    between atoms: _350  and  _351
REMARK  145  A    between atoms: _350  and  _353
REMARK  146  A    between atoms: _353  and  _354
REMARK  147  A    between atoms: _357  and  _359
REMARK  148  A    between atoms: _359  and  _360
REMARK  149  A    between atoms: _359  and  _362
REMARK  150  A    between atoms: _362  and  _363
REMARK  151  A    between atoms: _366  and  _368
REMARK  152  A    between atoms: _368  and  _369
REMARK  153  A    between atoms: _368  and  _371
REMARK  154  A    between atoms: _371  and  _372
REMARK  155  A    between atoms: _375  and  _377
REMARK  156  A    between atoms: _377  and  _378
REMARK  157  A    between atoms: _377  and  _380
REMARK  158  A    between atoms: _383  and  _385
REMARK  159  A    between atoms: _385  and  _386
REMARK  160  A    between atoms: _385  and  _388
REMARK  161  A    between atoms: _388  and  _389
REMARK  162  A    between atoms: _392  and  _394
REMARK  163  A    between atoms: _394  and  _395
REMARK  164  A    between atoms: _394  and  _397
REMARK  165  A    between atoms: _397  and  _398
REMARK  166  A    between atoms: _398  and  _399
REMARK  167  A    between atoms: _399  and  _400
REMARK  168  A    between atoms: _400  and  _401
REMARK  169  A    between atoms: _405  and  _407
REMARK  170  A    between atoms: _407  and  _408
REMARK  171  A    between atoms: _407  and  _410
REMARK  172  A    between atoms: _410  and  _411
REMARK  173  A    between atoms: _414  and  _416
REMARK  174  A    between atoms: _416  and  _417
REMARK  175  A    between atoms: _419  and  _421
REMARK  176  A    between atoms: _421  and  _422
REMARK  177  A    between atoms: _424  and  _426
REMARK  178  A    between atoms: _426  and  _427
REMARK  179  A    between atoms: _426  and  _429
REMARK  180  A    between atoms: _429  and  _430
REMARK  181  A    between atoms: _433  and  _435
REMARK  182  A    between atoms: _435  and  _436
REMARK  183  A    between atoms: _438  and  _440
REMARK  184  A    between atoms: _440  and  _441
REMARK  185  A    between atoms: _443  and  _445
REMARK  186  A    between atoms: _445  and  _446
REMARK  187  A    between atoms: _445  and  _448
REMARK  188  A    between atoms: _448  and  _449
REMARK  189  A    between atoms: _455  and  _457
REMARK  190  A    between atoms: _457  and  _458
REMARK  191  A    between atoms: _457  and  _460
REMARK  192  A    between atoms: _460  and  _461
REMARK  193  A    between atoms: _464  and  _466
REMARK  194  A    between atoms: _466  and  _467
REMARK  195  A    between atoms: _466  and  _469
REMARK  196  A    between atoms: _472  and  _474
REMARK  197  A    between atoms: _474  and  _475
REMARK  198  A    between atoms: _474  and  _477
REMARK  199  A    between atoms: _477  and  _478
REMARK  200  A    between atoms: _482  and  _483
REMARK  201  A    between atoms: _488  and  _490
REMARK  202  A    between atoms: _490  and  _491
REMARK  203  A    between atoms: _490  and  _493
REMARK  204  A    between atoms: _493  and  _494
REMARK  205  A    between atoms: _498  and  _499
REMARK  206  A    between atoms: _504  and  _506
REMARK  207  A    between atoms: _506  and  _507
REMARK  208  A    between atoms: _506  and  _509
REMARK  209  A    between atoms: _512  and  _514
REMARK  210  A    between atoms: _514  and  _515
REMARK  211  A    between atoms: _514  and  _517
REMARK  212  A    between atoms: _517  and  _518
REMARK  213  A    between atoms: _523  and  _525
REMARK  214  A    between atoms: _525  and  _526
REMARK  215  A    between atoms: _525  and  _528
REMARK  216  A    between atoms: _528  and  _529
REMARK  217  A    between atoms: _532  and  _534
REMARK  218  A    between atoms: _534  and  _535
REMARK  219  A    between atoms: _534  and  _537
REMARK  220  A    between atoms: _537  and  _538
REMARK  221  A    between atoms: _541  and  _543
REMARK  222  A    between atoms: _543  and  _544
REMARK  223  A    between atoms: _546  and  _548
REMARK  224  A    between atoms: _548  and  _549
REMARK  225  A    between atoms: _548  and  _551
REMARK  226  A    between atoms: _551  and  _552
REMARK  227  A    between atoms: _552  and  _553
REMARK  228  A    between atoms: _553  and  _554
REMARK  229  A    between atoms: _563  and  _565
REMARK  230  A    between atoms: _565  and  _566
REMARK  231  A    between atoms: _565  and  _568
REMARK  232  A    between atoms: _568  and  _569
REMARK                            x       y       z     vdW  Elec       q    Type
REMARK                         _______ _______ _______ _____ _____    ______ ____
ROOT
ATOM      1  O   HOH     1      -3.975  19.371 -10.538  0.00  0.00    +0.000 OA
ENDROOT
TORSDOF 0
REMARK  Name = ../refined-set-2016/1m0b/1m0b_pocket.pdb
REMARK  232 active torsions:
REMARK  status: ('A' for Active; 'I' for Inactive)
REMARK    1  A    between atoms: _1  and  _3
REMARK    2  A    between atoms: _3  and  _4
REMARK    3  A    between atoms: _3  and  _6
REMARK    4  A    between atoms: _6  and  _7
REMARK    5  A    between atoms: _7  and  _8
REMARK    6  A    between atoms: _8  and  _9
REMARK    7  A    between atoms: _18  and  _20
REMARK    8  A    between atoms: _20  and  _21
REMARK    9  A    between atoms: _20  and  _23
REMARK   10  A    between atoms: _23  and  _24
REMARK   11  A    between atoms: _27  and  _29
REMARK   12  A    between atoms: _29  and  _30
REMARK   13  A    between atoms: _29  and  _32
REMARK   14  A    between atoms: _32  and  _33
REMARK   15  A    between atoms: _36  and  _38
REMARK   16  A    between atoms: _38  and  _39
REMARK   17  A    between atoms: _38  and  _41
REMARK   18  A    between atoms: _41  and  _42
REMARK   19  A    between atoms: _45  and  _47
REMARK   20  A    between atoms: _47  and  _48
REMARK   21  A    between atoms: _47  and  _50
REMARK   22  A    between atoms: _50  and  _51
REMARK   23  A    between atoms: _54  and  _56
REMARK   24  A    between atoms: _56  and  _57
REMARK   25  A    between atoms: _59  and  _61
REMARK   26  A    between atoms: _61  and  _62
REMARK   27  A    between atoms: _65  and  _67
REMARK   28  A    between atoms: _67  and  _68
REMARK   29  A    between atoms: _67  and  _70
REMARK   30  A    between atoms: _70  and  _71
REMARK   31  A    between atoms: _74  and  _76
REMARK   32  A    between atoms: _76  and  _77
REMARK   33  A    between atoms: _76  and  _79
REMARK   34  A    between atoms: _79  and  _80
REMARK   35  A    between atoms: _83  and  _85
REMARK   36  A    between atoms: _85  and  _86
REMARK   37  A    between atoms: _85  and  _88
REMARK   38  A    between atoms: _88  and  _89
REMARK   39  A    between atoms: _92  and  _94
REMARK   40  A    between atoms: _94  and  _95
REMARK   41  A    between atoms: _94  and  _97
REMARK   42  A    between atoms: _100  and  _102
REMARK   43  A    between atoms: _102  and  _103
REMARK   44  A    between atoms: _102  and  _105
REMARK   45  A    between atoms: _105  and  _106
REMARK   46  A    between atoms: _106  and  _107
REMARK   47  A    between atoms: _107  and  _108
REMARK   48  A    between atoms: _108  and  _109
REMARK   49  A    between atoms: _113  and  _115
REMARK   50  A    between atoms: _115  and  _116
REMARK   51  A    between atoms: _115  and  _118
REMARK   52  A    between atoms: _118  and  _119
REMARK   53  A    between atoms: _119  and  _120
REMARK   54  A    between atoms: _122  and  _124
REMARK   55  A    between atoms: _124  and  _125
REMARK   56  A    between atoms: _124  and  _127
REMARK   57  A    between atoms: _127  and  _128
REMARK   58  A    between atoms: _131  and  _133
REMARK   59  A    between atoms: _133  and  _134
REMARK   60  A    between atoms: _136  and  _138
REMARK   61  A    between atoms: _138  and  _139
REMARK   62  A    between atoms: _141  and  _143
REMARK   63  A    between atoms: _143  and  _144
REMARK   64  A    between atoms: _143  and  _146
REMARK   65  A    between atoms: _146  and  _147
REMARK   66  A    between atoms: _150  and  _152
REMARK   67  A    between atoms: _152  and  _153
REMARK   68  A    between atoms: _155  and  _157
REMARK   69  A    between atoms: _157  and  _158
REMARK   70  A    between atoms: _160  and  _162
REMARK   71  A    between atoms: _162  and  _163
REMARK   72  A    between atoms: _162  and  _165
REMARK   73  A    between atoms: _165  and  _166
REMARK   74  A    between atoms: _172  and  _174
REMARK   75  A    between atoms: _174  and  _175
REMARK   76  A    between atoms: _174  and  _177
REMARK   77  A    between atoms: _177  and  _178
REMARK   78  A    between atoms: _181  and  _183
REMARK   79  A    between atoms: _183  and  _184
REMARK   80  A    between atoms: _183  and  _186
REMARK   81  A    between atoms: _189  and  _191
REMARK   82  A    between atoms: _191  and  _192
REMARK   83  A    between atoms: _191  and  _194
REMARK   84  A    between atoms: _194  and  _195
REMARK   85  A    between atoms: _198  and  _200
REMARK   86  A    between atoms: _200  and  _201
REMARK   87  A    between atoms: _200  and  _203
REMARK   88  A    between atoms: _203  and  _204
REMARK   89  A    between atoms: _208  and  _209
REMARK   90  A    between atoms: _214  and  _216
REMARK   91  A    between atoms: _216  and  _217
REMARK   92  A    between atoms: _216  and  _219
REMARK   93  A    between atoms: _222  and  _224
REMARK   94  A    between atoms: _224  and  _225
REMARK   95  A    between atoms: _224  and  _227
REMARK   96  A    between atoms: _227  and  _228
REMARK   97  A    between atoms: _233  and  _235
REMARK   98  A    between atoms: _235  and  _236
REMARK   99  A    between atoms: _235  and  _238
REMARK  100  A    between atoms: _238  and  _239
REMARK  101  A    between atoms: _242  and  _244
REMARK  102  A    between atoms: _244  and  _245
REMARK  103  A    between atoms: _244  and  _247
REMARK  104  A    between atoms: _247  and  _248
REMARK  105  A    between atoms: _251  and  _253
REMARK  106  A    between atoms: _253  and  _254
REMARK  107  A    between atoms: _256  and  _258
REMARK  108  A    between atoms: _258  and  _259
REMARK  109  A    between atoms: _258  and  _261
REMARK  110  A    between atoms: _261  and  _262
REMARK  111  A    between atoms: _262  and  _263
REMARK  112  A    between atoms: _263  and  _264
REMARK  113  A    between atoms: _273  and  _275
REMARK  114  A    between atoms: _275  and  _276
REMARK  115  A    between atoms: _275  and  _278
REMARK  116  A    between atoms: _278  and  _279
REMARK  117  A    between atoms: _284  and  _286
REMARK  118  A    between atoms: _286  and  _287
REMARK  119  A    between atoms: _286  and  _289
REMARK  120  A    between atoms: _289  and  _290
REMARK  121  A    between atoms: _290  and  _291
REMARK  122  A    between atoms: _291  and  _292
REMARK  123  A    between atoms: _301  and  _303
REMARK  124  A    between atoms: _303  and  _304
REMARK  125  A    between atoms: _303  and  _306
REMARK  126  A    between atoms: _306  and  _307
REMARK  127  A    between atoms: _310  and  _312
REMARK  128  A    between atoms: _312  and  _313
REMARK  129  A    between atoms: _312  and  _315
REMARK  130  A    between atoms: _315  and  _316
REMARK  131  A    between atoms: _319  and  _321
REMARK  132  A    between atoms: _321  and  _322
REMARK  133  A    between atoms: _321  and  _324
REMARK  134  A    between atoms: _324  and  _325
REMARK  135  A    between atoms: _328  and  _330
REMARK  136  A    between atoms: _330  and  _331
REMARK  137  A    between atoms: _330  and  _333
REMARK  138  A    between atoms: _333  and  _334
REMARK  139  A    between atoms: _337  and  _339
REMARK  140  A    between atoms: _339  and  _340
REMARK  141  A    between atoms: _342  and  _344
REMARK  142  A    between atoms: _344  and  _345
REMARK  143  A    between atoms: _348  and  _350
REMARK  144  A    between atoms: _350  and  _351
REMARK  145  A    between atoms: _350  and  _353
REMARK  146  A    between atoms: _353  and  _354
REMARK  147  A    between atoms: _357  and  _359
REMARK  148  A    between atoms: _359  and  _360
REMARK  149  A    between atoms: _359  and  _362
REMARK  150  A    between atoms: _362  and  _363
REMARK  151  A    between atoms: _366  and  _368
REMARK  152  A    between atoms: _368  and  _369
REMARK  153  A    between atoms: _368  and  _371
REMARK  154  A    between atoms: _371  and  _372
REMARK  155  A    between atoms: _375  and  _377
REMARK  156  A    between atoms: _377  and  _378
REMARK  157  A    between atoms: _377  and  _380
REMARK  158  A    between atoms: _383  and  _385
REMARK  159  A    between atoms: _385  and  _386
REMARK  160  A    between atoms: _385  and  _388
REMARK  161  A    between atoms: _388  and  _389
REMARK  162  A    between atoms: _392  and  _394
REMARK  163  A    between atoms: _394  and  _395
REMARK  164  A    between atoms: _394  and  _397
REMARK  165  A    between atoms: _397  and  _398
REMARK  166  A    between atoms: _398  and  _399
REMARK  167  A    between atoms: _399  and  _400
REMARK  168  A    between atoms: _400  and  _401
REMARK  169  A    between atoms: _405  and  _407
REMARK  170  A    between atoms: _407  and  _408
REMARK  171  A    between atoms: _407  and  _410
REMARK  172  A    between atoms: _410  and  _411
REMARK  173  A    between atoms: _414  and  _416
REMARK  174  A    between atoms: _416  and  _417
REMARK  175  A    between atoms: _419  and  _421
REMARK  176  A    between atoms: _421  and  _422
REMARK  177  A    between atoms: _424  and  _426
REMARK  178  A    between atoms: _426  and  _427
REMARK  179  A    between atoms: _426  and  _429
REMARK  180  A    between atoms: _429  and  _430
REMARK  181  A    between atoms: _433  and  _435
REMARK  182  A    between atoms: _435  and  _436
REMARK  183  A    between atoms: _438  and  _440
REMARK  184  A    between atoms: _440  and  _441
REMARK  185  A    between atoms: _443  and  _445
REMARK  186  A    between atoms: _445  and  _446
REMARK  187  A    between atoms: _445  and  _448
REMARK  188  A    between atoms: _448  and  _449
REMARK  189  A    between atoms: _455  and  _457
REMARK  190  A    between atoms: _457  and  _458
REMARK  191  A    between atoms: _457  and  _460
REMARK  192  A    between atoms: _460  and  _461
REMARK  193  A    between atoms: _464  and  _466
REMARK  194  A    between atoms: _466  and  _467
REMARK  195  A    between atoms: _466  and  _469
REMARK  196  A    between atoms: _472  and  _474
REMARK  197  A    between atoms: _474  and  _475
REMARK  198  A    between atoms: _474  and  _477
REMARK  199  A    between atoms: _477  and  _478
REMARK  200  A    between atoms: _482  and  _483
REMARK  201  A    between atoms: _488  and  _490
REMARK  202  A    between atoms: _490  and  _491
REMARK  203  A    between atoms: _490  and  _493
REMARK  204  A    between atoms: _493  and  _494
REMARK  205  A    between atoms: _498  and  _499
REMARK  206  A    between atoms: _504  and  _506
REMARK  207  A    between atoms: _506  and  _507
REMARK  208  A    between atoms: _506  and  _509
REMARK  209  A    between atoms: _512  and  _514
REMARK  210  A    between atoms: _514  and  _515
REMARK  211  A    between atoms: _514  and  _517
REMARK  212  A    between atoms: _517  and  _518
REMARK  213  A    between atoms: _523  and  _525
REMARK  214  A    between atoms: _525  and  _526
REMARK  215  A    between atoms: _525  and  _528
REMARK  216  A    between atoms: _528  and  _529
REMARK  217  A    between atoms: _532  and  _534
REMARK  218  A    between atoms: _534  and  _535
REMARK  219  A    between atoms: _534  and  _537
REMARK  220  A    between atoms: _537  and  _538
REMARK  221  A    between atoms: _541  and  _543
REMARK  222  A    between atoms: _543  and  _544
REMARK  223  A    between atoms: _546  and  _548
REMARK  224  A    between atoms: _548  and  _549
REMARK  225  A    between atoms: _548  and  _551
REMARK  226  A    between atoms: _551  and  _552
REMARK  227  A    between atoms: _552  and  _553
REMARK  228  A    between atoms: _553  and  _554
REMARK  229  A    between atoms: _563  and  _565
REMARK  230  A    between atoms: _565  and  _566
REMARK  231  A    between atoms: _565  and  _568
REMARK  232  A    between atoms: _568  and  _569
REMARK                            x       y       z     vdW  Elec       q    Type
REMARK                         _______ _______ _______ _____ _____    ______ ____
ROOT
ATOM      1  O   HOH     1      -3.347  14.249 -11.538  0.00  0.00    +0.000 OA
ENDROOT
TORSDOF 0
