REMARK  Name = ../refined-set-2016/4mrw/4mrw_pocket.pdb
REMARK  125 active torsions:
REMARK  status: ('A' for Active; 'I' for Inactive)
REMARK    1  A    between atoms: _1  and  _3
REMARK    2  A    between atoms: _3  and  _4
REMARK    3  A    between atoms: _3  and  _6
REMARK    4  A    between atoms: _6  and  _7
REMARK    5  A    between atoms: _12  and  _13
REMARK    6  A    between atoms: _15  and  _17
REMARK    7  A    between atoms: _17  and  _18
REMARK    8  A    between atoms: _17  and  _20
REMARK    9  A    between atoms: _20  and  _21
REMARK   10  A    between atoms: _26  and  _28
REMARK   11  A    between atoms: _28  and  _29
REMARK   12  A    between atoms: _28  and  _31
REMARK   13  A    between atoms: _31  and  _32
REMARK   14  A    between atoms: _36  and  NI_308
REMARK   15  A    between atoms: _37  and  _39
REMARK   16  A    between atoms: _39  and  _40
REMARK   17  A    between atoms: _39  and  _42
REMARK   18  A    between atoms: _42  and  _43
REMARK   19  A    between atoms: _46  and  _48
REMARK   20  A    between atoms: _48  and  _49
REMARK   21  A    between atoms: _48  and  _51
REMARK   22  A    between atoms: _51  and  _52
REMARK   23  A    between atoms: _55  and  _57
REMARK   24  A    between atoms: _57  and  _58
REMARK   25  A    between atoms: _61  and  _63
REMARK   26  A    between atoms: _63  and  _64
REMARK   27  A    between atoms: _63  and  _66
REMARK   28  A    between atoms: _68  and  _70
REMARK   29  A    between atoms: _70  and  _71
REMARK   30  A    between atoms: _70  and  _73
REMARK   31  A    between atoms: _73  and  _74
REMARK   32  A    between atoms: _74  and  _76
REMARK   33  A    between atoms: _76  and  NI_308
REMARK   34  A    between atoms: _77  and  _79
REMARK   35  A    between atoms: _79  and  _80
REMARK   36  A    between atoms: _79  and  _82
REMARK   37  A    between atoms: _82  and  _83
REMARK   38  A    between atoms: _86  and  _88
REMARK   39  A    between atoms: _88  and  _89
REMARK   40  A    between atoms: _88  and  _91
REMARK   41  A    between atoms: _93  and  _95
REMARK   42  A    between atoms: _95  and  _96
REMARK   43  A    between atoms: _95  and  _98
REMARK   44  A    between atoms: _98  and  _99
REMARK   45  A    between atoms: _101  and  _103
REMARK   46  A    between atoms: _103  and  _104
REMARK   47  A    between atoms: _103  and  _106
REMARK   48  A    between atoms: _109  and  _111
REMARK   49  A    between atoms: _111  and  _112
REMARK   50  A    between atoms: _111  and  _114
REMARK   51  A    between atoms: _114  and  _115
REMARK   52  A    between atoms: _118  and  _120
REMARK   53  A    between atoms: _120  and  _121
REMARK   54  A    between atoms: _120  and  _123
REMARK   55  A    between atoms: _123  and  _124
REMARK   56  A    between atoms: _124  and  _125
REMARK   57  A    between atoms: _125  and  _126
REMARK   58  A    between atoms: _126  and  _127
REMARK   59  A    between atoms: _131  and  _133
REMARK   60  A    between atoms: _133  and  _134
REMARK   61  A    between atoms: _133  and  _136
REMARK   62  A    between atoms: _136  and  _137
REMARK   63  A    between atoms: _140  and  _142
REMARK   64  A    between atoms: _142  and  _143
REMARK   65  A    between atoms: _142  and  _145
REMARK   66  A    between atoms: _145  and  _146
REMARK   67  A    between atoms: _149  and  _151
REMARK   68  A    between atoms: _151  and  _152
REMARK   69  A    between atoms: _155  and  _157
REMARK   70  A    between atoms: _157  and  _158
REMARK   71  A    between atoms: _157  and  _160
REMARK   72  A    between atoms: _160  and  _161
REMARK   73  A    between atoms: _164  and  _166
REMARK   74  A    between atoms: _166  and  _167
REMARK   75  A    between atoms: _166  and  _169
REMARK   76  A    between atoms: _169  and  _170
REMARK   77  A    between atoms: _175  and  _176
REMARK   78  A    between atoms: _178  and  _180
REMARK   79  A    between atoms: _180  and  _181
REMARK   80  A    between atoms: _180  and  _183
REMARK   81  A    between atoms: _183  and  _184
REMARK   82  A    between atoms: _190  and  _192
REMARK   83  A    between atoms: _192  and  _193
REMARK   84  A    between atoms: _192  and  _195
REMARK   85  A    between atoms: _195  and  _196
REMARK   86  A    between atoms: _196  and  _197
REMARK   87  A    between atoms: _199  and  _201
REMARK   88  A    between atoms: _201  and  _202
REMARK   89  A    between atoms: _201  and  _204
REMARK   90  A    between atoms: _207  and  _209
REMARK   91  A    between atoms: _209  and  _210
REMARK   92  A    between atoms: _212  and  _214
REMARK   93  A    between atoms: _214  and  _215
REMARK   94  A    between atoms: _214  and  _217
REMARK   95  A    between atoms: _217  and  _218
REMARK   96  A    between atoms: _218  and  _219
REMARK   97  A    between atoms: _224  and  _226
REMARK   98  A    between atoms: _226  and  _227
REMARK   99  A    between atoms: _226  and  _229
REMARK  100  A    between atoms: _229  and  _230
REMARK  101  A    between atoms: _233  and  _235
REMARK  102  A    between atoms: _235  and  _236
REMARK  103  A    between atoms: _238  and  _240
REMARK  104  A    between atoms: _240  and  _241
REMARK  105  A    between atoms: _240  and  _243
REMARK  106  A    between atoms: _243  and  _244
REMARK  107  A    between atoms: _250  and  _252
REMARK  108  A    between atoms: _252  and  _253
REMARK  109  A    between atoms: _252  and  _255
REMARK  110  A    between atoms: _255  and  _256
REMARK  111  A    between atoms: _261  and  _262
REMARK  112  A    between atoms: _264  and  _266
REMARK  113  A    between atoms: _266  and  _267
REMARK  114  A    between atoms: _266  and  _269
REMARK  115  A    between atoms: _272  and  _274
REMARK  116  A    between atoms: _274  and  _275
REMARK  117  A    between atoms: _278  and  _280
REMARK  118  A    between atoms: _280  and  _281
REMARK  119  A    between atoms: _280  and  _283
REMARK  120  A    between atoms: _283  and  _284
REMARK  121  A    between atoms: _289  and  _290
REMARK  122  A    between atoms: _292  and  _294
REMARK  123  A    between atoms: _294  and  _295
REMARK  124  A    between atoms: _294  and  _297
REMARK  125  A    between atoms: _297  and  _298
REMARK                            x       y       z     vdW  Elec       q    Type
REMARK                         _______ _______ _______ _____ _____    ______ ____
ROOT
ATOM      1  C   TYR A   1      14.116 -28.608 -29.790  0.00  0.00    +0.239 C 
ATOM      2  O   TYR A   1      13.823 -28.860 -28.626  0.00  0.00    -0.274 OA
ATOM      3  N   HIS A   2      14.532 -29.543 -30.648  0.00  0.00    -0.298 N 
ATOM      4  H   HIS A   2      14.807 -29.259 -31.610  0.00  0.00    +0.150 HD
ENDROOT
BRANCH   1   5
ATOM      5  CA  TYR A   1      14.016 -27.170 -30.300  0.00  0.00    +0.149 C 
BRANCH   5   6
ATOM      6  N   TYR A   1      15.252 -26.615 -30.915  0.00  0.00    -0.238 NA
ATOM      7  H   TYR A   1      15.727 -27.111 -31.696  0.00  0.00    +0.142 HD
ENDBRANCH   5   6
BRANCH   5   8
ATOM      8  CB  TYR A   1      12.825 -27.019 -31.232  0.00  0.00    +0.053 C 
BRANCH   8   9
ATOM      9  CG  TYR A   1      11.543 -27.620 -30.690  0.00  0.00    -0.020 A 
ATOM     10  CD2 TYR A   1      10.861 -27.018 -29.640  0.00  0.00    -0.001 A 
ATOM     11  CE2 TYR A   1       9.672 -27.570 -29.125  0.00  0.00    +0.036 A 
ATOM     12  CZ  TYR A   1       9.168 -28.746 -29.661  0.00  0.00    +0.134 A 
ATOM     13  CE1 TYR A   1       9.824 -29.369 -30.705  0.00  0.00    +0.036 A 
ATOM     14  CD1 TYR A   1      11.023 -28.802 -31.218  0.00  0.00    -0.001 A 
BRANCH  12  15
ATOM     15  OH  TYR A   1       7.973 -29.251 -29.179  0.00  0.00    -0.506 OA
ATOM     16  HH  TYR A   1       7.650 -28.681 -28.437  0.00  0.00    +0.292 HD
ENDBRANCH  12  15
ENDBRANCH   8   9
ENDBRANCH   5   8
ENDBRANCH   1   5
BRANCH   3  17
ATOM     17  CA  HIS A   2      14.614 -30.974 -30.270  0.00  0.00    +0.143 C 
BRANCH  17  18
ATOM     18  C   HIS A   2      15.859 -31.226 -29.418  0.00  0.00    +0.227 C 
ATOM     19  O   HIS A   2      16.816 -31.868 -29.846  0.00  0.00    -0.286 OA
ENDBRANCH  17  18
BRANCH  17  20
ATOM     20  CB  HIS A   2      14.573 -31.868 -31.506  0.00  0.00    +0.075 C 
BRANCH  20  21
ATOM     21  CG  HIS A   2      13.276 -31.795 -32.253  0.00  0.00    +0.082 A 
ATOM     22  CD2 HIS A   2      12.071 -32.359 -31.999  0.00  0.00    +0.115 A 
ATOM     23  NE2 HIS A   2      11.204 -31.938 -32.985  0.00  0.00    -0.221 NA
ATOM     24  CE1 HIS A   2      11.859 -31.161 -33.827  0.00  0.00    +0.199 A 
ATOM     25  ND1 HIS A   2      13.114 -31.057 -33.408  0.00  0.00    -0.227 NA
ENDBRANCH  20  21
ENDBRANCH  17  20
ENDBRANCH   3  17
TORSDOF 9
REMARK  Name = ../refined-set-2016/4mrw/4mrw_pocket.pdb
REMARK  125 active torsions:
REMARK  status: ('A' for Active; 'I' for Inactive)
REMARK    1  A    between atoms: _1  and  _3
REMARK    2  A    between atoms: _3  and  _4
REMARK    3  A    between atoms: _3  and  _6
REMARK    4  A    between atoms: _6  and  _7
REMARK    5  A    between atoms: _12  and  _13
REMARK    6  A    between atoms: _15  and  _17
REMARK    7  A    between atoms: _17  and  _18
REMARK    8  A    between atoms: _17  and  _20
REMARK    9  A    between atoms: _20  and  _21
REMARK   10  A    between atoms: _26  and  _28
REMARK   11  A    between atoms: _28  and  _29
REMARK   12  A    between atoms: _28  and  _31
REMARK   13  A    between atoms: _31  and  _32
REMARK   14  A    between atoms: _36  and  NI_308
REMARK   15  A    between atoms: _37  and  _39
REMARK   16  A    between atoms: _39  and  _40
REMARK   17  A    between atoms: _39  and  _42
REMARK   18  A    between atoms: _42  and  _43
REMARK   19  A    between atoms: _46  and  _48
REMARK   20  A    between atoms: _48  and  _49
REMARK   21  A    between atoms: _48  and  _51
REMARK   22  A    between atoms: _51  and  _52
REMARK   23  A    between atoms: _55  and  _57
REMARK   24  A    between atoms: _57  and  _58
REMARK   25  A    between atoms: _61  and  _63
REMARK   26  A    between atoms: _63  and  _64
REMARK   27  A    between atoms: _63  and  _66
REMARK   28  A    between atoms: _68  and  _70
REMARK   29  A    between atoms: _70  and  _71
REMARK   30  A    between atoms: _70  and  _73
REMARK   31  A    between atoms: _73  and  _74
REMARK   32  A    between atoms: _74  and  _76
REMARK   33  A    between atoms: _76  and  NI_308
REMARK   34  A    between atoms: _77  and  _79
REMARK   35  A    between atoms: _79  and  _80
REMARK   36  A    between atoms: _79  and  _82
REMARK   37  A    between atoms: _82  and  _83
REMARK   38  A    between atoms: _86  and  _88
REMARK   39  A    between atoms: _88  and  _89
REMARK   40  A    between atoms: _88  and  _91
REMARK   41  A    between atoms: _93  and  _95
REMARK   42  A    between atoms: _95  and  _96
REMARK   43  A    between atoms: _95  and  _98
REMARK   44  A    between atoms: _98  and  _99
REMARK   45  A    between atoms: _101  and  _103
REMARK   46  A    between atoms: _103  and  _104
REMARK   47  A    between atoms: _103  and  _106
REMARK   48  A    between atoms: _109  and  _111
REMARK   49  A    between atoms: _111  and  _112
REMARK   50  A    between atoms: _111  and  _114
REMARK   51  A    between atoms: _114  and  _115
REMARK   52  A    between atoms: _118  and  _120
REMARK   53  A    between atoms: _120  and  _121
REMARK   54  A    between atoms: _120  and  _123
REMARK   55  A    between atoms: _123  and  _124
REMARK   56  A    between atoms: _124  and  _125
REMARK   57  A    between atoms: _125  and  _126
REMARK   58  A    between atoms: _126  and  _127
REMARK   59  A    between atoms: _131  and  _133
REMARK   60  A    between atoms: _133  and  _134
REMARK   61  A    between atoms: _133  and  _136
REMARK   62  A    between atoms: _136  and  _137
REMARK   63  A    between atoms: _140  and  _142
REMARK   64  A    between atoms: _142  and  _143
REMARK   65  A    between atoms: _142  and  _145
REMARK   66  A    between atoms: _145  and  _146
REMARK   67  A    between atoms: _149  and  _151
REMARK   68  A    between atoms: _151  and  _152
REMARK   69  A    between atoms: _155  and  _157
REMARK   70  A    between atoms: _157  and  _158
REMARK   71  A    between atoms: _157  and  _160
REMARK   72  A    between atoms: _160  and  _161
REMARK   73  A    between atoms: _164  and  _166
REMARK   74  A    between atoms: _166  and  _167
REMARK   75  A    between atoms: _166  and  _169
REMARK   76  A    between atoms: _169  and  _170
REMARK   77  A    between atoms: _175  and  _176
REMARK   78  A    between atoms: _178  and  _180
REMARK   79  A    between atoms: _180  and  _181
REMARK   80  A    between atoms: _180  and  _183
REMARK   81  A    between atoms: _183  and  _184
REMARK   82  A    between atoms: _190  and  _192
REMARK   83  A    between atoms: _192  and  _193
REMARK   84  A    between atoms: _192  and  _195
REMARK   85  A    between atoms: _195  and  _196
REMARK   86  A    between atoms: _196  and  _197
REMARK   87  A    between atoms: _199  and  _201
REMARK   88  A    between atoms: _201  and  _202
REMARK   89  A    between atoms: _201  and  _204
REMARK   90  A    between atoms: _207  and  _209
REMARK   91  A    between atoms: _209  and  _210
REMARK   92  A    between atoms: _212  and  _214
REMARK   93  A    between atoms: _214  and  _215
REMARK   94  A    between atoms: _214  and  _217
REMARK   95  A    between atoms: _217  and  _218
REMARK   96  A    between atoms: _218  and  _219
REMARK   97  A    between atoms: _224  and  _226
REMARK   98  A    between atoms: _226  and  _227
REMARK   99  A    between atoms: _226  and  _229
REMARK  100  A    between atoms: _229  and  _230
REMARK  101  A    between atoms: _233  and  _235
REMARK  102  A    between atoms: _235  and  _236
REMARK  103  A    between atoms: _238  and  _240
REMARK  104  A    between atoms: _240  and  _241
REMARK  105  A    between atoms: _240  and  _243
REMARK  106  A    between atoms: _243  and  _244
REMARK  107  A    between atoms: _250  and  _252
REMARK  108  A    between atoms: _252  and  _253
REMARK  109  A    between atoms: _252  and  _255
REMARK  110  A    between atoms: _255  and  _256
REMARK  111  A    between atoms: _261  and  _262
REMARK  112  A    between atoms: _264  and  _266
REMARK  113  A    between atoms: _266  and  _267
REMARK  114  A    between atoms: _266  and  _269
REMARK  115  A    between atoms: _272  and  _274
REMARK  116  A    between atoms: _274  and  _275
REMARK  117  A    between atoms: _278  and  _280
REMARK  118  A    between atoms: _280  and  _281
REMARK  119  A    between atoms: _280  and  _283
REMARK  120  A    between atoms: _283  and  _284
REMARK  121  A    between atoms: _289  and  _290
REMARK  122  A    between atoms: _292  and  _294
REMARK  123  A    between atoms: _294  and  _295
REMARK  124  A    between atoms: _294  and  _297
REMARK  125  A    between atoms: _297  and  _298
REMARK                            x       y       z     vdW  Elec       q    Type
REMARK                         _______ _______ _______ _____ _____    ______ ____
ROOT
ATOM      1  CA  LEU A   5       3.172 -31.782 -28.358  0.00  0.00    +0.000 C 
ENDROOT
BRANCH   1   2
ATOM      2  C   LEU A   5       2.765 -30.858 -27.199  0.00  0.00    +0.000 C 
ATOM      3  N   CYS A   6       3.113 -31.206 -25.961  0.00  0.00    +0.000 N 
ATOM      4  H   CYS A   6       3.820 -31.954 -25.812  0.00  0.00    +0.000 HD
ATOM      5  O   LEU A   5       2.123 -29.839 -27.439  0.00  0.00    +0.000 OA
BRANCH   3   6
ATOM      6  CA  CYS A   6       2.496 -30.532 -24.799  0.00  0.00    +0.000 C 
BRANCH   6   7
ATOM      7  C   CYS A   6       2.845 -29.037 -24.625  0.00  0.00    +0.000 C 
ATOM      8  O   CYS A   6       2.147 -28.334 -23.883  0.00  0.00    +0.000 OA
ATOM      9  N   SER A   7       3.901 -28.550 -25.306  0.00  0.00    +0.000 N 
ATOM     10  H   SER A   7       4.546 -29.206 -25.792  0.00  0.00    +0.000 HD
BRANCH   9  11
ATOM     11  CA  SER A   7       4.151 -27.114 -25.370  0.00  0.00    +0.000 C 
BRANCH  11  12
ATOM     12  C   SER A   7       2.934 -26.312 -25.840  0.00  0.00    +0.000 C 
ATOM     13  O   SER A   7       2.819 -25.135 -25.507  0.00  0.00    +0.000 OA
ATOM     14  N   VAL A   8       2.031 -26.944 -26.587  0.00  0.00    +0.000 N 
ATOM     15  H   VAL A   8       2.236 -27.909 -26.916  0.00  0.00    +0.000 HD
BRANCH  14  16
ATOM     16  CA  VAL A   8       0.752 -26.320 -26.962  0.00  0.00    +0.000 C 
BRANCH  16  17
ATOM     17  C   VAL A   8      -0.309 -26.355 -25.845  0.00  0.00    +0.000 C 
ATOM     18  N   THR A   9       0.054 -26.906 -24.688  0.00  0.00    +0.000 N 
ATOM     19  H   THR A   9       1.011 -27.303 -24.595  0.00  0.00    +0.000 HD
ATOM     20  O   VAL A   8      -1.455 -25.893 -26.042  0.00  0.00    +0.000 OA
BRANCH  18  21
ATOM     21  CA  THR A   9      -0.866 -26.969 -23.533  0.00  0.00    +0.000 C 
BRANCH  21  22
ATOM     22  C   THR A   9      -0.422 -26.084 -22.357  0.00  0.00    +0.000 C 
ATOM     23  O   THR A   9      -1.037 -26.101 -21.280  0.00  0.00    +0.000 OA
ATOM     24  N   LYS A  10       0.670 -25.338 -22.544  0.00  0.00    +0.000 N 
ATOM     25  H   LYS A  10       1.200 -25.425 -23.435  0.00  0.00    +0.000 HD
BRANCH  24  26
ATOM     26  CA  LYS A  10       1.136 -24.400 -21.519  0.00  0.00    +0.000 C 
BRANCH  26  27
ATOM     27  C   LYS A  10       0.346 -23.100 -21.608  0.00  0.00    +0.000 C 
ATOM     28  O   LYS A  10      -0.522 -22.960 -22.482  0.00  0.00    +0.000 OA
ENDBRANCH  26  27
BRANCH  26  29
ATOM     29  CB  LYS A  10       2.637 -24.140 -21.684  0.00  0.00    +0.000 C 
BRANCH  29  30
ATOM     30  CG  LYS A  10       3.458 -25.416 -21.791  0.00  0.00    +0.000 C 
BRANCH  30  31
ATOM     31  CD  LYS A  10       3.237 -26.364 -20.607  0.00  0.00    +0.000 C 
BRANCH  31  32
ATOM     32  CE  LYS A  10       4.134 -27.618 -20.700  0.00  0.00    +0.000 C 
BRANCH  32  33
ATOM     33  NZ  LYS A  10       3.884 -28.565 -19.541  0.00  0.00    +0.000 N 
ATOM     34  HZ1 LYS A  10       4.090 -28.077 -18.646  0.00  0.00    +0.000 HD
ATOM     35  HZ2 LYS A  10       2.889 -28.869 -19.551  0.00  0.00    +0.000 HD
ATOM     36  HZ3 LYS A  10       4.502 -29.396 -19.634  0.00  0.00    +0.000 HD
ENDBRANCH  32  33
ENDBRANCH  31  32
ENDBRANCH  30  31
ENDBRANCH  29  30
ENDBRANCH  26  29
ENDBRANCH  24  26
ENDBRANCH  21  22
BRANCH  21  37
ATOM     37  CB  THR A   9      -1.043 -28.414 -23.010  0.00  0.00    +0.000 C 
ATOM     38  CG2 THR A   9      -1.594 -29.363 -24.106  0.00  0.00    +0.000 C 
BRANCH  37  39
ATOM     39  OG1 THR A   9       0.214 -28.889 -22.515  0.00  0.00    +0.000 OA
ATOM     40  HG1 THR A   9       0.881 -28.878 -23.247  0.00  0.00    +0.000 HD
ENDBRANCH  37  39
ENDBRANCH  21  37
ENDBRANCH  18  21
ENDBRANCH  16  17
BRANCH  16  41
ATOM     41  CB  VAL A   8       0.128 -26.943 -28.253  0.00  0.00    +0.000 C 
ATOM     42  CG2 VAL A   8      -0.369 -28.371 -27.976  0.00  0.00    +0.000 C 
ATOM     43  CG1 VAL A   8       1.126 -26.918 -29.424  0.00  0.00    +0.000 C 
ENDBRANCH  16  41
ENDBRANCH  14  16
ENDBRANCH  11  12
BRANCH  11  44
ATOM     44  CB  SER A   7       5.349 -26.756 -26.249  0.00  0.00    +0.000 C 
BRANCH  44  45
ATOM     45  OG  SER A   7       4.956 -26.765 -27.616  0.00  0.00    +0.000 OA
ATOM     46  H   SER A   7       4.627 -27.667 -27.858  0.00  0.00    +0.000 HD
ENDBRANCH  44  45
ENDBRANCH  11  44
ENDBRANCH   9  11
ENDBRANCH   6   7
BRANCH   6  47
ATOM     47  CB  CYS A   6       2.742 -31.311 -23.509  0.00  0.00    +0.000 C 
ATOM     48  SG  CYS A   6       4.428 -31.076 -22.847  0.00  0.00    +0.000 S 
ENDBRANCH   6  47
ENDBRANCH   3   6
ENDBRANCH   1   2
BRANCH   1  50
ATOM     49  C   UNK A   1       5.043 -33.253 -27.806  0.00  0.00    +0.000 C 
ATOM     50  N   LEU A   5       3.727 -33.071 -27.951  0.00  0.00    +0.000 N 
ATOM     51  H   LEU A   5       3.082 -33.866 -27.770  0.00  0.00    +0.000 HD
ATOM     52  O   UNK A   1       5.890 -32.347 -27.971  0.00  0.00    +0.000 OA
BRANCH  49  53
ATOM     53  C   UNK A   1       5.487 -34.658 -27.407  0.00  0.00    +0.000 C 
BRANCH  53  54
ATOM     54  N   UNK A   1       4.572 -35.265 -26.412  0.00  0.00    +0.000 N 
ATOM     55  C   CYS A   3       4.308 -34.721 -25.222  0.00  0.00    +0.000 C 
ATOM     56  O   CYS A   3       4.802 -33.658 -24.838  0.00  0.00    +0.000 OA
ATOM     57  H   UNK A   1       4.110 -36.165 -26.654  0.00  0.00    +0.000 HD
BRANCH  55  58
ATOM     58  CA  CYS A   3       3.332 -35.488 -24.328  0.00  0.00    +0.000 C 
BRANCH  58  59
ATOM     59  N   CYS A   3       2.155 -35.977 -25.064  0.00  0.00    +0.000 N 
ATOM     60  H   CYS A   3       2.017 -36.998 -25.207  0.00  0.00    +0.000 HD
ATOM     61  C   ALA A   2       1.276 -35.120 -25.542  0.00  0.00    +0.000 C 
ATOM     62  O   ALA A   2       1.433 -33.907 -25.417  0.00  0.00    +0.000 OA
BRANCH  61  63
ATOM     63  CA  ALA A   2       0.057 -35.686 -26.310  0.00  0.00    +0.000 C 
ATOM     64  CB  ALA A   2      -0.992 -36.214 -25.367  0.00  0.00    +0.000 C 
BRANCH  63  65
ATOM     65  N   ALA A   2       0.428 -36.730 -27.256  0.00  0.00    +0.000 N 
ATOM     66  H   ALA A   2      -0.078 -37.638 -27.221  0.00  0.00    +0.000 HD
ATOM     67  C   UNK A   1       1.391 -36.569 -28.166  0.00  0.00    +0.000 C 
ATOM     68  O   UNK A   1       1.999 -35.505 -28.349  0.00  0.00    +0.000 OA
BRANCH  67  69
ATOM     69  C   UNK A   1       1.709 -37.798 -29.018  0.00  0.00    +0.000 C 
BRANCH  69  70
ATOM     70  C   UNK A   1       0.505 -38.066 -29.986  0.00  0.00    +0.000 C 
ATOM     71  C   UNK A   1       0.284 -36.863 -30.941  0.00  0.00    +0.000 C 
BRANCH  70  72
ATOM     72  O   UNK A   1       0.766 -39.232 -30.759  0.00  0.00    +0.000 OA
ATOM     73  H   UNK A   1       1.592 -39.097 -31.289  0.00  0.00    +0.000 HD
ENDBRANCH  70  72
ENDBRANCH  69  70
BRANCH  69  74
ATOM     74  N   UNK A   1       2.020 -38.956 -28.171  0.00  0.00    +0.000 NA
ATOM     75  H   UNK A   1       1.404 -39.792 -28.227  0.00  0.00    +0.000 HD
ENDBRANCH  69  74
ENDBRANCH  67  69
ENDBRANCH  63  65
ENDBRANCH  61  63
ENDBRANCH  58  59
BRANCH  58  76
ATOM     76  CB  CYS A   3       4.033 -36.640 -23.612  0.00  0.00    +0.000 C 
ATOM     77  SG  CYS A   3       3.036 -37.377 -22.271  0.00  0.00    +0.000 S 
ENDBRANCH  58  76
ENDBRANCH  55  58
ENDBRANCH  53  54
BRANCH  53  78
ATOM     78  C   UNK A   1       5.559 -35.529 -28.660  0.00  0.00    +0.000 C 
BRANCH  78  79
ATOM     79  C   UNK A   1       6.807 -35.270 -29.505  0.00  0.00    +0.000 C 
ATOM     80  O   UNK A   1       6.834 -35.690 -30.678  0.00  0.00    +0.000 OA
BRANCH  79  81
ATOM     81  O   UNK A   1       7.771 -34.678 -29.006  0.00  0.00    +0.000 OA
BRANCH  81  82
ATOM     82 NI   UNK A   1       9.821 -34.681 -29.534  0.00  0.00    +0.000 Ni
BRANCH  82  86
ATOM     83  C   UNK A   1      11.311 -31.534 -27.038  0.00  0.00    +0.000 A 
ATOM     84  N   UNK A   1       9.976 -31.190 -27.005  0.00  0.00    +0.000 NA
ATOM     85  C   UNK A   1       9.269 -32.102 -27.646  0.00  0.00    +0.000 A 
ATOM     86  N   UNK A   1      10.095 -33.035 -28.075  0.00  0.00    +0.000 N 
ATOM     87  C   UNK A   1      11.382 -32.702 -27.708  0.00  0.00    +0.000 A 
BRANCH  83  88
ATOM     88  C   UNK A   1      12.371 -30.707 -26.388  0.00  0.00    +0.000 C 
BRANCH  88  89
ATOM     89  C   UNK A   1      12.218 -30.607 -24.879  0.00  0.00    +0.000 C 
BRANCH  89  90
ATOM     90  C   UNK A   1      12.029 -32.006 -24.271  0.00  0.00    +0.000 C 
ATOM     91  O   UNK A   1      10.908 -32.380 -23.924  0.00  0.00    +0.000 OA
ENDBRANCH  89  90
BRANCH  89  92
ATOM     92  N   UNK A   1      13.368 -29.914 -24.309  0.00  0.00    +0.000 NA
ATOM     93  H   UNK A   1      14.147 -29.632 -24.938  0.00  0.00    +0.000 HD
ENDBRANCH  89  92
ENDBRANCH  88  89
ENDBRANCH  83  88
ENDBRANCH  82  86
ENDBRANCH  81  82
ENDBRANCH  79  81
ENDBRANCH  78  79
ENDBRANCH  53  78
ENDBRANCH  49  53
ENDBRANCH   1  50
BRANCH   1  94
ATOM     94  CB  LEU A   5       1.924 -31.985 -29.242  0.00  0.00    +0.000 C 
BRANCH  94  95
ATOM     95  CG  LEU A   5       2.028 -32.841 -30.499  0.00  0.00    +0.000 C 
ATOM     96  CD2 LEU A   5       0.686 -32.891 -31.218  0.00  0.00    +0.000 C 
ATOM     97  CD1 LEU A   5       3.123 -32.331 -31.438  0.00  0.00    +0.000 C 
ENDBRANCH  94  95
ENDBRANCH   1  94
TORSDOF 45
REMARK  Name = ../refined-set-2016/4mrw/4mrw_pocket.pdb
REMARK  125 active torsions:
REMARK  status: ('A' for Active; 'I' for Inactive)
REMARK    1  A    between atoms: _1  and  _3
REMARK    2  A    between atoms: _3  and  _4
REMARK    3  A    between atoms: _3  and  _6
REMARK    4  A    between atoms: _6  and  _7
REMARK    5  A    between atoms: _12  and  _13
REMARK    6  A    between atoms: _15  and  _17
REMARK    7  A    between atoms: _17  and  _18
REMARK    8  A    between atoms: _17  and  _20
REMARK    9  A    between atoms: _20  and  _21
REMARK   10  A    between atoms: _26  and  _28
REMARK   11  A    between atoms: _28  and  _29
REMARK   12  A    between atoms: _28  and  _31
REMARK   13  A    between atoms: _31  and  _32
REMARK   14  A    between atoms: _36  and  NI_308
REMARK   15  A    between atoms: _37  and  _39
REMARK   16  A    between atoms: _39  and  _40
REMARK   17  A    between atoms: _39  and  _42
REMARK   18  A    between atoms: _42  and  _43
REMARK   19  A    between atoms: _46  and  _48
REMARK   20  A    between atoms: _48  and  _49
REMARK   21  A    between atoms: _48  and  _51
REMARK   22  A    between atoms: _51  and  _52
REMARK   23  A    between atoms: _55  and  _57
REMARK   24  A    between atoms: _57  and  _58
REMARK   25  A    between atoms: _61  and  _63
REMARK   26  A    between atoms: _63  and  _64
REMARK   27  A    between atoms: _63  and  _66
REMARK   28  A    between atoms: _68  and  _70
REMARK   29  A    between atoms: _70  and  _71
REMARK   30  A    between atoms: _70  and  _73
REMARK   31  A    between atoms: _73  and  _74
REMARK   32  A    between atoms: _74  and  _76
REMARK   33  A    between atoms: _76  and  NI_308
REMARK   34  A    between atoms: _77  and  _79
REMARK   35  A    between atoms: _79  and  _80
REMARK   36  A    between atoms: _79  and  _82
REMARK   37  A    between atoms: _82  and  _83
REMARK   38  A    between atoms: _86  and  _88
REMARK   39  A    between atoms: _88  and  _89
REMARK   40  A    between atoms: _88  and  _91
REMARK   41  A    between atoms: _93  and  _95
REMARK   42  A    between atoms: _95  and  _96
REMARK   43  A    between atoms: _95  and  _98
REMARK   44  A    between atoms: _98  and  _99
REMARK   45  A    between atoms: _101  and  _103
REMARK   46  A    between atoms: _103  and  _104
REMARK   47  A    between atoms: _103  and  _106
REMARK   48  A    between atoms: _109  and  _111
REMARK   49  A    between atoms: _111  and  _112
REMARK   50  A    between atoms: _111  and  _114
REMARK   51  A    between atoms: _114  and  _115
REMARK   52  A    between atoms: _118  and  _120
REMARK   53  A    between atoms: _120  and  _121
REMARK   54  A    between atoms: _120  and  _123
REMARK   55  A    between atoms: _123  and  _124
REMARK   56  A    between atoms: _124  and  _125
REMARK   57  A    between atoms: _125  and  _126
REMARK   58  A    between atoms: _126  and  _127
REMARK   59  A    between atoms: _131  and  _133
REMARK   60  A    between atoms: _133  and  _134
REMARK   61  A    between atoms: _133  and  _136
REMARK   62  A    between atoms: _136  and  _137
REMARK   63  A    between atoms: _140  and  _142
REMARK   64  A    between atoms: _142  and  _143
REMARK   65  A    between atoms: _142  and  _145
REMARK   66  A    between atoms: _145  and  _146
REMARK   67  A    between atoms: _149  and  _151
REMARK   68  A    between atoms: _151  and  _152
REMARK   69  A    between atoms: _155  and  _157
REMARK   70  A    between atoms: _157  and  _158
REMARK   71  A    between atoms: _157  and  _160
REMARK   72  A    between atoms: _160  and  _161
REMARK   73  A    between atoms: _164  and  _166
REMARK   74  A    between atoms: _166  and  _167
REMARK   75  A    between atoms: _166  and  _169
REMARK   76  A    between atoms: _169  and  _170
REMARK   77  A    between atoms: _175  and  _176
REMARK   78  A    between atoms: _178  and  _180
REMARK   79  A    between atoms: _180  and  _181
REMARK   80  A    between atoms: _180  and  _183
REMARK   81  A    between atoms: _183  and  _184
REMARK   82  A    between atoms: _190  and  _192
REMARK   83  A    between atoms: _192  and  _193
REMARK   84  A    between atoms: _192  and  _195
REMARK   85  A    between atoms: _195  and  _196
REMARK   86  A    between atoms: _196  and  _197
REMARK   87  A    between atoms: _199  and  _201
REMARK   88  A    between atoms: _201  and  _202
REMARK   89  A    between atoms: _201  and  _204
REMARK   90  A    between atoms: _207  and  _209
REMARK   91  A    between atoms: _209  and  _210
REMARK   92  A    between atoms: _212  and  _214
REMARK   93  A    between atoms: _214  and  _215
REMARK   94  A    between atoms: _214  and  _217
REMARK   95  A    between atoms: _217  and  _218
REMARK   96  A    between atoms: _218  and  _219
REMARK   97  A    between atoms: _224  and  _226
REMARK   98  A    between atoms: _226  and  _227
REMARK   99  A    between atoms: _226  and  _229
REMARK  100  A    between atoms: _229  and  _230
REMARK  101  A    between atoms: _233  and  _235
REMARK  102  A    between atoms: _235  and  _236
REMARK  103  A    between atoms: _238  and  _240
REMARK  104  A    between atoms: _240  and  _241
REMARK  105  A    between atoms: _240  and  _243
REMARK  106  A    between atoms: _243  and  _244
REMARK  107  A    between atoms: _250  and  _252
REMARK  108  A    between atoms: _252  and  _253
REMARK  109  A    between atoms: _252  and  _255
REMARK  110  A    between atoms: _255  and  _256
REMARK  111  A    between atoms: _261  and  _262
REMARK  112  A    between atoms: _264  and  _266
REMARK  113  A    between atoms: _266  and  _267
REMARK  114  A    between atoms: _266  and  _269
REMARK  115  A    between atoms: _272  and  _274
REMARK  116  A    between atoms: _274  and  _275
REMARK  117  A    between atoms: _278  and  _280
REMARK  118  A    between atoms: _280  and  _281
REMARK  119  A    between atoms: _280  and  _283
REMARK  120  A    between atoms: _283  and  _284
REMARK  121  A    between atoms: _289  and  _290
REMARK  122  A    between atoms: _292  and  _294
REMARK  123  A    between atoms: _294  and  _295
REMARK  124  A    between atoms: _294  and  _297
REMARK  125  A    between atoms: _297  and  _298
REMARK                            x       y       z     vdW  Elec       q    Type
REMARK                         _______ _______ _______ _____ _____    ______ ____
ROOT
ATOM      1  CA  LEU A   1       3.522 -37.894 -36.266  0.00  0.00    +0.133 C 
ENDROOT
BRANCH   1   2
ATOM      2  N   LEU A   1       4.859 -38.475 -36.043  0.00  0.00    -0.239 NA
ATOM      3  H   LEU A   1       5.700 -37.870 -36.131  0.00  0.00    +0.142 HD
ENDBRANCH   1   2
BRANCH   1   4
ATOM      4  C   LEU A   1       2.832 -38.471 -37.493  0.00  0.00    +0.224 C 
ATOM      5  O   LEU A   1       1.599 -38.437 -37.595  0.00  0.00    -0.287 OA
ENDBRANCH   1   4
BRANCH   1   6
ATOM      6  CB  LEU A   1       3.576 -36.370 -36.342  0.00  0.00    +0.025 C 
BRANCH   6   7
ATOM      7  CG  LEU A   1       3.664 -35.586 -35.025  0.00  0.00    +0.002 C 
ATOM      8  CD2 LEU A   1       2.383 -35.734 -34.183  0.00  0.00    +0.000 C 
ATOM      9  CD1 LEU A   1       3.922 -34.110 -35.356  0.00  0.00    +0.000 C 
ENDBRANCH   6   7
ENDBRANCH   1   6
TORSDOF 4
REMARK  Name = ../refined-set-2016/4mrw/4mrw_pocket.pdb
REMARK  125 active torsions:
REMARK  status: ('A' for Active; 'I' for Inactive)
REMARK    1  A    between atoms: _1  and  _3
REMARK    2  A    between atoms: _3  and  _4
REMARK    3  A    between atoms: _3  and  _6
REMARK    4  A    between atoms: _6  and  _7
REMARK    5  A    between atoms: _12  and  _13
REMARK    6  A    between atoms: _15  and  _17
REMARK    7  A    between atoms: _17  and  _18
REMARK    8  A    between atoms: _17  and  _20
REMARK    9  A    between atoms: _20  and  _21
REMARK   10  A    between atoms: _26  and  _28
REMARK   11  A    between atoms: _28  and  _29
REMARK   12  A    between atoms: _28  and  _31
REMARK   13  A    between atoms: _31  and  _32
REMARK   14  A    between atoms: _36  and  NI_308
REMARK   15  A    between atoms: _37  and  _39
REMARK   16  A    between atoms: _39  and  _40
REMARK   17  A    between atoms: _39  and  _42
REMARK   18  A    between atoms: _42  and  _43
REMARK   19  A    between atoms: _46  and  _48
REMARK   20  A    between atoms: _48  and  _49
REMARK   21  A    between atoms: _48  and  _51
REMARK   22  A    between atoms: _51  and  _52
REMARK   23  A    between atoms: _55  and  _57
REMARK   24  A    between atoms: _57  and  _58
REMARK   25  A    between atoms: _61  and  _63
REMARK   26  A    between atoms: _63  and  _64
REMARK   27  A    between atoms: _63  and  _66
REMARK   28  A    between atoms: _68  and  _70
REMARK   29  A    between atoms: _70  and  _71
REMARK   30  A    between atoms: _70  and  _73
REMARK   31  A    between atoms: _73  and  _74
REMARK   32  A    between atoms: _74  and  _76
REMARK   33  A    between atoms: _76  and  NI_308
REMARK   34  A    between atoms: _77  and  _79
REMARK   35  A    between atoms: _79  and  _80
REMARK   36  A    between atoms: _79  and  _82
REMARK   37  A    between atoms: _82  and  _83
REMARK   38  A    between atoms: _86  and  _88
REMARK   39  A    between atoms: _88  and  _89
REMARK   40  A    between atoms: _88  and  _91
REMARK   41  A    between atoms: _93  and  _95
REMARK   42  A    between atoms: _95  and  _96
REMARK   43  A    between atoms: _95  and  _98
REMARK   44  A    between atoms: _98  and  _99
REMARK   45  A    between atoms: _101  and  _103
REMARK   46  A    between atoms: _103  and  _104
REMARK   47  A    between atoms: _103  and  _106
REMARK   48  A    between atoms: _109  and  _111
REMARK   49  A    between atoms: _111  and  _112
REMARK   50  A    between atoms: _111  and  _114
REMARK   51  A    between atoms: _114  and  _115
REMARK   52  A    between atoms: _118  and  _120
REMARK   53  A    between atoms: _120  and  _121
REMARK   54  A    between atoms: _120  and  _123
REMARK   55  A    between atoms: _123  and  _124
REMARK   56  A    between atoms: _124  and  _125
REMARK   57  A    between atoms: _125  and  _126
REMARK   58  A    between atoms: _126  and  _127
REMARK   59  A    between atoms: _131  and  _133
REMARK   60  A    between atoms: _133  and  _134
REMARK   61  A    between atoms: _133  and  _136
REMARK   62  A    between atoms: _136  and  _137
REMARK   63  A    between atoms: _140  and  _142
REMARK   64  A    between atoms: _142  and  _143
REMARK   65  A    between atoms: _142  and  _145
REMARK   66  A    between atoms: _145  and  _146
REMARK   67  A    between atoms: _149  and  _151
REMARK   68  A    between atoms: _151  and  _152
REMARK   69  A    between atoms: _155  and  _157
REMARK   70  A    between atoms: _157  and  _158
REMARK   71  A    between atoms: _157  and  _160
REMARK   72  A    between atoms: _160  and  _161
REMARK   73  A    between atoms: _164  and  _166
REMARK   74  A    between atoms: _166  and  _167
REMARK   75  A    between atoms: _166  and  _169
REMARK   76  A    between atoms: _169  and  _170
REMARK   77  A    between atoms: _175  and  _176
REMARK   78  A    between atoms: _178  and  _180
REMARK   79  A    between atoms: _180  and  _181
REMARK   80  A    between atoms: _180  and  _183
REMARK   81  A    between atoms: _183  and  _184
REMARK   82  A    between atoms: _190  and  _192
REMARK   83  A    between atoms: _192  and  _193
REMARK   84  A    between atoms: _192  and  _195
REMARK   85  A    between atoms: _195  and  _196
REMARK   86  A    between atoms: _196  and  _197
REMARK   87  A    between atoms: _199  and  _201
REMARK   88  A    between atoms: _201  and  _202
REMARK   89  A    between atoms: _201  and  _204
REMARK   90  A    between atoms: _207  and  _209
REMARK   91  A    between atoms: _209  and  _210
REMARK   92  A    between atoms: _212  and  _214
REMARK   93  A    between atoms: _214  and  _215
REMARK   94  A    between atoms: _214  and  _217
REMARK   95  A    between atoms: _217  and  _218
REMARK   96  A    between atoms: _218  and  _219
REMARK   97  A    between atoms: _224  and  _226
REMARK   98  A    between atoms: _226  and  _227
REMARK   99  A    between atoms: _226  and  _229
REMARK  100  A    between atoms: _229  and  _230
REMARK  101  A    between atoms: _233  and  _235
REMARK  102  A    between atoms: _235  and  _236
REMARK  103  A    between atoms: _238  and  _240
REMARK  104  A    between atoms: _240  and  _241
REMARK  105  A    between atoms: _240  and  _243
REMARK  106  A    between atoms: _243  and  _244
REMARK  107  A    between atoms: _250  and  _252
REMARK  108  A    between atoms: _252  and  _253
REMARK  109  A    between atoms: _252  and  _255
REMARK  110  A    between atoms: _255  and  _256
REMARK  111  A    between atoms: _261  and  _262
REMARK  112  A    between atoms: _264  and  _266
REMARK  113  A    between atoms: _266  and  _267
REMARK  114  A    between atoms: _266  and  _269
REMARK  115  A    between atoms: _272  and  _274
REMARK  116  A    between atoms: _274  and  _275
REMARK  117  A    between atoms: _278  and  _280
REMARK  118  A    between atoms: _280  and  _281
REMARK  119  A    between atoms: _280  and  _283
REMARK  120  A    between atoms: _283  and  _284
REMARK  121  A    between atoms: _289  and  _290
REMARK  122  A    between atoms: _292  and  _294
REMARK  123  A    between atoms: _294  and  _295
REMARK  124  A    between atoms: _294  and  _297
REMARK  125  A    between atoms: _297  and  _298
REMARK                            x       y       z     vdW  Elec       q    Type
REMARK                         _______ _______ _______ _____ _____    ______ ____
ROOT
ATOM      1  CA  THR A   1       3.663 -21.766 -25.837  0.00  0.00    +0.160 C 
ENDROOT
BRANCH   1   2
ATOM      2  N   THR A   1       3.942 -21.204 -24.546  0.00  0.00    -0.237 NA
ATOM      3  H   THR A   1       3.145 -21.050 -23.896  0.00  0.00    +0.142 HD
ENDBRANCH   1   2
BRANCH   1   4
ATOM      4  CB  THR A   1       2.137 -21.889 -26.015  0.00  0.00    +0.134 C 
ATOM      5  CG2 THR A   1       1.817 -22.412 -27.393  0.00  0.00    +0.034 C 
BRANCH   4   6
ATOM      6  OG1 THR A   1       1.620 -22.785 -25.024  0.00  0.00    -0.383 OA
ATOM      7  HG1 THR A   1       2.041 -23.674 -25.133  0.00  0.00    +0.210 HD
ENDBRANCH   4   6
ENDBRANCH   1   4
BRANCH   1   8
ATOM      8  C   THR A   1       4.162 -20.902 -26.981  0.00  0.00    +0.227 C 
ATOM      9  O   THR A   1       4.723 -21.424 -27.940  0.00  0.00    -0.287 OA
ENDBRANCH   1   8
TORSDOF 4
REMARK  Name = ../refined-set-2016/4mrw/4mrw_pocket.pdb
REMARK  125 active torsions:
REMARK  status: ('A' for Active; 'I' for Inactive)
REMARK    1  A    between atoms: _1  and  _3
REMARK    2  A    between atoms: _3  and  _4
REMARK    3  A    between atoms: _3  and  _6
REMARK    4  A    between atoms: _6  and  _7
REMARK    5  A    between atoms: _12  and  _13
REMARK    6  A    between atoms: _15  and  _17
REMARK    7  A    between atoms: _17  and  _18
REMARK    8  A    between atoms: _17  and  _20
REMARK    9  A    between atoms: _20  and  _21
REMARK   10  A    between atoms: _26  and  _28
REMARK   11  A    between atoms: _28  and  _29
REMARK   12  A    between atoms: _28  and  _31
REMARK   13  A    between atoms: _31  and  _32
REMARK   14  A    between atoms: _36  and  NI_308
REMARK   15  A    between atoms: _37  and  _39
REMARK   16  A    between atoms: _39  and  _40
REMARK   17  A    between atoms: _39  and  _42
REMARK   18  A    between atoms: _42  and  _43
REMARK   19  A    between atoms: _46  and  _48
REMARK   20  A    between atoms: _48  and  _49
REMARK   21  A    between atoms: _48  and  _51
REMARK   22  A    between atoms: _51  and  _52
REMARK   23  A    between atoms: _55  and  _57
REMARK   24  A    between atoms: _57  and  _58
REMARK   25  A    between atoms: _61  and  _63
REMARK   26  A    between atoms: _63  and  _64
REMARK   27  A    between atoms: _63  and  _66
REMARK   28  A    between atoms: _68  and  _70
REMARK   29  A    between atoms: _70  and  _71
REMARK   30  A    between atoms: _70  and  _73
REMARK   31  A    between atoms: _73  and  _74
REMARK   32  A    between atoms: _74  and  _76
REMARK   33  A    between atoms: _76  and  NI_308
REMARK   34  A    between atoms: _77  and  _79
REMARK   35  A    between atoms: _79  and  _80
REMARK   36  A    between atoms: _79  and  _82
REMARK   37  A    between atoms: _82  and  _83
REMARK   38  A    between atoms: _86  and  _88
REMARK   39  A    between atoms: _88  and  _89
REMARK   40  A    between atoms: _88  and  _91
REMARK   41  A    between atoms: _93  and  _95
REMARK   42  A    between atoms: _95  and  _96
REMARK   43  A    between atoms: _95  and  _98
REMARK   44  A    between atoms: _98  and  _99
REMARK   45  A    between atoms: _101  and  _103
REMARK   46  A    between atoms: _103  and  _104
REMARK   47  A    between atoms: _103  and  _106
REMARK   48  A    between atoms: _109  and  _111
REMARK   49  A    between atoms: _111  and  _112
REMARK   50  A    between atoms: _111  and  _114
REMARK   51  A    between atoms: _114  and  _115
REMARK   52  A    between atoms: _118  and  _120
REMARK   53  A    between atoms: _120  and  _121
REMARK   54  A    between atoms: _120  and  _123
REMARK   55  A    between atoms: _123  and  _124
REMARK   56  A    between atoms: _124  and  _125
REMARK   57  A    between atoms: _125  and  _126
REMARK   58  A    between atoms: _126  and  _127
REMARK   59  A    between atoms: _131  and  _133
REMARK   60  A    between atoms: _133  and  _134
REMARK   61  A    between atoms: _133  and  _136
REMARK   62  A    between atoms: _136  and  _137
REMARK   63  A    between atoms: _140  and  _142
REMARK   64  A    between atoms: _142  and  _143
REMARK   65  A    between atoms: _142  and  _145
REMARK   66  A    between atoms: _145  and  _146
REMARK   67  A    between atoms: _149  and  _151
REMARK   68  A    between atoms: _151  and  _152
REMARK   69  A    between atoms: _155  and  _157
REMARK   70  A    between atoms: _157  and  _158
REMARK   71  A    between atoms: _157  and  _160
REMARK   72  A    between atoms: _160  and  _161
REMARK   73  A    between atoms: _164  and  _166
REMARK   74  A    between atoms: _166  and  _167
REMARK   75  A    between atoms: _166  and  _169
REMARK   76  A    between atoms: _169  and  _170
REMARK   77  A    between atoms: _175  and  _176
REMARK   78  A    between atoms: _178  and  _180
REMARK   79  A    between atoms: _180  and  _181
REMARK   80  A    between atoms: _180  and  _183
REMARK   81  A    between atoms: _183  and  _184
REMARK   82  A    between atoms: _190  and  _192
REMARK   83  A    between atoms: _192  and  _193
REMARK   84  A    between atoms: _192  and  _195
REMARK   85  A    between atoms: _195  and  _196
REMARK   86  A    between atoms: _196  and  _197
REMARK   87  A    between atoms: _199  and  _201
REMARK   88  A    between atoms: _201  and  _202
REMARK   89  A    between atoms: _201  and  _204
REMARK   90  A    between atoms: _207  and  _209
REMARK   91  A    between atoms: _209  and  _210
REMARK   92  A    between atoms: _212  and  _214
REMARK   93  A    between atoms: _214  and  _215
REMARK   94  A    between atoms: _214  and  _217
REMARK   95  A    between atoms: _217  and  _218
REMARK   96  A    between atoms: _218  and  _219
REMARK   97  A    between atoms: _224  and  _226
REMARK   98  A    between atoms: _226  and  _227
REMARK   99  A    between atoms: _226  and  _229
REMARK  100  A    between atoms: _229  and  _230
REMARK  101  A    between atoms: _233  and  _235
REMARK  102  A    between atoms: _235  and  _236
REMARK  103  A    between atoms: _238  and  _240
REMARK  104  A    between atoms: _240  and  _241
REMARK  105  A    between atoms: _240  and  _243
REMARK  106  A    between atoms: _243  and  _244
REMARK  107  A    between atoms: _250  and  _252
REMARK  108  A    between atoms: _252  and  _253
REMARK  109  A    between atoms: _252  and  _255
REMARK  110  A    between atoms: _255  and  _256
REMARK  111  A    between atoms: _261  and  _262
REMARK  112  A    between atoms: _264  and  _266
REMARK  113  A    between atoms: _266  and  _267
REMARK  114  A    between atoms: _266  and  _269
REMARK  115  A    between atoms: _272  and  _274
REMARK  116  A    between atoms: _274  and  _275
REMARK  117  A    between atoms: _278  and  _280
REMARK  118  A    between atoms: _280  and  _281
REMARK  119  A    between atoms: _280  and  _283
REMARK  120  A    between atoms: _283  and  _284
REMARK  121  A    between atoms: _289  and  _290
REMARK  122  A    between atoms: _292  and  _294
REMARK  123  A    between atoms: _294  and  _295
REMARK  124  A    between atoms: _294  and  _297
REMARK  125  A    between atoms: _297  and  _298
REMARK                            x       y       z     vdW  Elec       q    Type
REMARK                         _______ _______ _______ _____ _____    ______ ____
ROOT
ATOM      1  C   THR A   1       8.247 -22.353 -29.168  0.00  0.00    +0.241 C 
ATOM      2  N   ALA A   2       7.101 -21.886 -29.658  0.00  0.00    -0.298 N 
ATOM      3  H   ALA A   2       6.344 -21.599 -29.005  0.00  0.00    +0.150 HD
ATOM      4  O   THR A   1       9.129 -22.798 -29.879  0.00  0.00    -0.274 OA
ENDROOT
BRANCH   2   5
ATOM      5  CA  ALA A   2       6.890 -21.770 -31.105  0.00  0.00    +0.137 C 
ATOM      6  CB  ALA A   2       5.576 -21.056 -31.433  0.00  0.00    +0.030 C 
BRANCH   5   7
ATOM      7  C   ALA A   2       8.078 -21.123 -31.840  0.00  0.00    +0.227 C 
ATOM      8  O   ALA A   2       8.430 -21.562 -32.926  0.00  0.00    -0.286 OA
ENDBRANCH   5   7
ENDBRANCH   2   5
BRANCH   1   9
ATOM      9  CA  THR A   1       8.445 -22.317 -27.642  0.00  0.00    +0.172 C 
BRANCH   9  10
ATOM     10  N   THR A   1       8.047 -21.026 -27.095  0.00  0.00    -0.236 NA
ATOM     11  H   THR A   1       7.283 -20.997 -26.390  0.00  0.00    +0.142 HD
ENDBRANCH   9  10
BRANCH   9  12
ATOM     12  CB  THR A   1       7.699 -23.498 -26.955  0.00  0.00    +0.135 C 
ATOM     13  CG2 THR A   1       8.070 -24.840 -27.575  0.00  0.00    +0.034 C 
BRANCH  12  14
ATOM     14  OG1 THR A   1       8.056 -23.541 -25.573  0.00  0.00    -0.383 OA
ATOM     15  HG1 THR A   1       7.798 -22.689 -25.140  0.00  0.00    +0.210 HD
ENDBRANCH  12  14
ENDBRANCH   9  12
ENDBRANCH   1   9
TORSDOF 6
REMARK  Name = ../refined-set-2016/4mrw/4mrw_pocket.pdb
REMARK  125 active torsions:
REMARK  status: ('A' for Active; 'I' for Inactive)
REMARK    1  A    between atoms: _1  and  _3
REMARK    2  A    between atoms: _3  and  _4
REMARK    3  A    between atoms: _3  and  _6
REMARK    4  A    between atoms: _6  and  _7
REMARK    5  A    between atoms: _12  and  _13
REMARK    6  A    between atoms: _15  and  _17
REMARK    7  A    between atoms: _17  and  _18
REMARK    8  A    between atoms: _17  and  _20
REMARK    9  A    between atoms: _20  and  _21
REMARK   10  A    between atoms: _26  and  _28
REMARK   11  A    between atoms: _28  and  _29
REMARK   12  A    between atoms: _28  and  _31
REMARK   13  A    between atoms: _31  and  _32
REMARK   14  A    between atoms: _36  and  NI_308
REMARK   15  A    between atoms: _37  and  _39
REMARK   16  A    between atoms: _39  and  _40
REMARK   17  A    between atoms: _39  and  _42
REMARK   18  A    between atoms: _42  and  _43
REMARK   19  A    between atoms: _46  and  _48
REMARK   20  A    between atoms: _48  and  _49
REMARK   21  A    between atoms: _48  and  _51
REMARK   22  A    between atoms: _51  and  _52
REMARK   23  A    between atoms: _55  and  _57
REMARK   24  A    between atoms: _57  and  _58
REMARK   25  A    between atoms: _61  and  _63
REMARK   26  A    between atoms: _63  and  _64
REMARK   27  A    between atoms: _63  and  _66
REMARK   28  A    between atoms: _68  and  _70
REMARK   29  A    between atoms: _70  and  _71
REMARK   30  A    between atoms: _70  and  _73
REMARK   31  A    between atoms: _73  and  _74
REMARK   32  A    between atoms: _74  and  _76
REMARK   33  A    between atoms: _76  and  NI_308
REMARK   34  A    between atoms: _77  and  _79
REMARK   35  A    between atoms: _79  and  _80
REMARK   36  A    between atoms: _79  and  _82
REMARK   37  A    between atoms: _82  and  _83
REMARK   38  A    between atoms: _86  and  _88
REMARK   39  A    between atoms: _88  and  _89
REMARK   40  A    between atoms: _88  and  _91
REMARK   41  A    between atoms: _93  and  _95
REMARK   42  A    between atoms: _95  and  _96
REMARK   43  A    between atoms: _95  and  _98
REMARK   44  A    between atoms: _98  and  _99
REMARK   45  A    between atoms: _101  and  _103
REMARK   46  A    between atoms: _103  and  _104
REMARK   47  A    between atoms: _103  and  _106
REMARK   48  A    between atoms: _109  and  _111
REMARK   49  A    between atoms: _111  and  _112
REMARK   50  A    between atoms: _111  and  _114
REMARK   51  A    between atoms: _114  and  _115
REMARK   52  A    between atoms: _118  and  _120
REMARK   53  A    between atoms: _120  and  _121
REMARK   54  A    between atoms: _120  and  _123
REMARK   55  A    between atoms: _123  and  _124
REMARK   56  A    between atoms: _124  and  _125
REMARK   57  A    between atoms: _125  and  _126
REMARK   58  A    between atoms: _126  and  _127
REMARK   59  A    between atoms: _131  and  _133
REMARK   60  A    between atoms: _133  and  _134
REMARK   61  A    between atoms: _133  and  _136
REMARK   62  A    between atoms: _136  and  _137
REMARK   63  A    between atoms: _140  and  _142
REMARK   64  A    between atoms: _142  and  _143
REMARK   65  A    between atoms: _142  and  _145
REMARK   66  A    between atoms: _145  and  _146
REMARK   67  A    between atoms: _149  and  _151
REMARK   68  A    between atoms: _151  and  _152
REMARK   69  A    between atoms: _155  and  _157
REMARK   70  A    between atoms: _157  and  _158
REMARK   71  A    between atoms: _157  and  _160
REMARK   72  A    between atoms: _160  and  _161
REMARK   73  A    between atoms: _164  and  _166
REMARK   74  A    between atoms: _166  and  _167
REMARK   75  A    between atoms: _166  and  _169
REMARK   76  A    between atoms: _169  and  _170
REMARK   77  A    between atoms: _175  and  _176
REMARK   78  A    between atoms: _178  and  _180
REMARK   79  A    between atoms: _180  and  _181
REMARK   80  A    between atoms: _180  and  _183
REMARK   81  A    between atoms: _183  and  _184
REMARK   82  A    between atoms: _190  and  _192
REMARK   83  A    between atoms: _192  and  _193
REMARK   84  A    between atoms: _192  and  _195
REMARK   85  A    between atoms: _195  and  _196
REMARK   86  A    between atoms: _196  and  _197
REMARK   87  A    between atoms: _199  and  _201
REMARK   88  A    between atoms: _201  and  _202
REMARK   89  A    between atoms: _201  and  _204
REMARK   90  A    between atoms: _207  and  _209
REMARK   91  A    between atoms: _209  and  _210
REMARK   92  A    between atoms: _212  and  _214
REMARK   93  A    between atoms: _214  and  _215
REMARK   94  A    between atoms: _214  and  _217
REMARK   95  A    between atoms: _217  and  _218
REMARK   96  A    between atoms: _218  and  _219
REMARK   97  A    between atoms: _224  and  _226
REMARK   98  A    between atoms: _226  and  _227
REMARK   99  A    between atoms: _226  and  _229
REMARK  100  A    between atoms: _229  and  _230
REMARK  101  A    between atoms: _233  and  _235
REMARK  102  A    between atoms: _235  and  _236
REMARK  103  A    between atoms: _238  and  _240
REMARK  104  A    between atoms: _240  and  _241
REMARK  105  A    between atoms: _240  and  _243
REMARK  106  A    between atoms: _243  and  _244
REMARK  107  A    between atoms: _250  and  _252
REMARK  108  A    between atoms: _252  and  _253
REMARK  109  A    between atoms: _252  and  _255
REMARK  110  A    between atoms: _255  and  _256
REMARK  111  A    between atoms: _261  and  _262
REMARK  112  A    between atoms: _264  and  _266
REMARK  113  A    between atoms: _266  and  _267
REMARK  114  A    between atoms: _266  and  _269
REMARK  115  A    between atoms: _272  and  _274
REMARK  116  A    between atoms: _274  and  _275
REMARK  117  A    between atoms: _278  and  _280
REMARK  118  A    between atoms: _280  and  _281
REMARK  119  A    between atoms: _280  and  _283
REMARK  120  A    between atoms: _283  and  _284
REMARK  121  A    between atoms: _289  and  _290
REMARK  122  A    between atoms: _292  and  _294
REMARK  123  A    between atoms: _294  and  _295
REMARK  124  A    between atoms: _294  and  _297
REMARK  125  A    between atoms: _297  and  _298
REMARK                            x       y       z     vdW  Elec       q    Type
REMARK                         _______ _______ _______ _____ _____    ______ ____
ROOT
ATOM      1  CA  TYR A   2      10.437 -22.315 -36.259  0.00  0.00    +0.141 C 
ENDROOT
BRANCH   1   3
ATOM      2  C   ILE A   1      10.611 -24.216 -34.724  0.00  0.00    +0.238 C 
ATOM      3  N   TYR A   2      10.237 -22.954 -34.957  0.00  0.00    -0.298 N 
ATOM      4  H   TYR A   2       9.791 -22.410 -34.191  0.00  0.00    +0.150 HD
ATOM      5  O   ILE A   1      11.132 -24.934 -35.589  0.00  0.00    -0.274 OA
BRANCH   2   6
ATOM      6  CA  ILE A   1      10.338 -24.765 -33.316  0.00  0.00    +0.145 C 
BRANCH   6   7
ATOM      7  N   ILE A   1      10.788 -23.822 -32.277  0.00  0.00    -0.238 NA
ATOM      8  H   ILE A   1      10.105 -23.499 -31.563  0.00  0.00    +0.142 HD
ENDBRANCH   6   7
BRANCH   6   9
ATOM      9  CB  ILE A   1       8.804 -25.066 -33.168  0.00  0.00    +0.025 C 
ATOM     10  CG2 ILE A   1       8.311 -25.937 -34.304  0.00  0.00    +0.002 C 
BRANCH   9  11
ATOM     11  CG1 ILE A   1       8.504 -25.673 -31.784  0.00  0.00    +0.002 C 
ATOM     12  CD1 ILE A   1       7.021 -25.804 -31.434  0.00  0.00    +0.000 C 
ENDBRANCH   9  11
ENDBRANCH   6   9
ENDBRANCH   2   6
ENDBRANCH   1   3
BRANCH   1  13
ATOM     13  C   TYR A   2      11.892 -21.979 -36.535  0.00  0.00    +0.227 C 
ATOM     14  O   TYR A   2      12.302 -22.062 -37.678  0.00  0.00    -0.286 OA
ENDBRANCH   1  13
BRANCH   1  15
ATOM     15  CB  TYR A   2       9.536 -21.098 -36.459  0.00  0.00    +0.054 C 
BRANCH  15  16
ATOM     16  CG  TYR A   2       8.126 -21.500 -36.873  0.00  0.00    -0.020 A 
ATOM     17  CD2 TYR A   2       7.155 -21.774 -35.913  0.00  0.00    -0.001 A 
ATOM     18  CE2 TYR A   2       5.863 -22.158 -36.285  0.00  0.00    +0.036 A 
ATOM     19  CZ  TYR A   2       5.535 -22.290 -37.631  0.00  0.00    +0.134 A 
ATOM     20  CE1 TYR A   2       6.486 -22.056 -38.597  0.00  0.00    +0.036 A 
ATOM     21  CD1 TYR A   2       7.789 -21.669 -38.212  0.00  0.00    -0.001 A 
BRANCH  19  22
ATOM     22  OH  TYR A   2       4.249 -22.686 -38.003  0.00  0.00    -0.506 OA
ATOM     23  HH  TYR A   2       3.696 -22.810 -37.192  0.00  0.00    +0.292 HD
ENDBRANCH  19  22
ENDBRANCH  15  16
ENDBRANCH   1  15
TORSDOF 9
REMARK  Name = ../refined-set-2016/4mrw/4mrw_pocket.pdb
REMARK  125 active torsions:
REMARK  status: ('A' for Active; 'I' for Inactive)
REMARK    1  A    between atoms: _1  and  _3
REMARK    2  A    between atoms: _3  and  _4
REMARK    3  A    between atoms: _3  and  _6
REMARK    4  A    between atoms: _6  and  _7
REMARK    5  A    between atoms: _12  and  _13
REMARK    6  A    between atoms: _15  and  _17
REMARK    7  A    between atoms: _17  and  _18
REMARK    8  A    between atoms: _17  and  _20
REMARK    9  A    between atoms: _20  and  _21
REMARK   10  A    between atoms: _26  and  _28
REMARK   11  A    between atoms: _28  and  _29
REMARK   12  A    between atoms: _28  and  _31
REMARK   13  A    between atoms: _31  and  _32
REMARK   14  A    between atoms: _36  and  NI_308
REMARK   15  A    between atoms: _37  and  _39
REMARK   16  A    between atoms: _39  and  _40
REMARK   17  A    between atoms: _39  and  _42
REMARK   18  A    between atoms: _42  and  _43
REMARK   19  A    between atoms: _46  and  _48
REMARK   20  A    between atoms: _48  and  _49
REMARK   21  A    between atoms: _48  and  _51
REMARK   22  A    between atoms: _51  and  _52
REMARK   23  A    between atoms: _55  and  _57
REMARK   24  A    between atoms: _57  and  _58
REMARK   25  A    between atoms: _61  and  _63
REMARK   26  A    between atoms: _63  and  _64
REMARK   27  A    between atoms: _63  and  _66
REMARK   28  A    between atoms: _68  and  _70
REMARK   29  A    between atoms: _70  and  _71
REMARK   30  A    between atoms: _70  and  _73
REMARK   31  A    between atoms: _73  and  _74
REMARK   32  A    between atoms: _74  and  _76
REMARK   33  A    between atoms: _76  and  NI_308
REMARK   34  A    between atoms: _77  and  _79
REMARK   35  A    between atoms: _79  and  _80
REMARK   36  A    between atoms: _79  and  _82
REMARK   37  A    between atoms: _82  and  _83
REMARK   38  A    between atoms: _86  and  _88
REMARK   39  A    between atoms: _88  and  _89
REMARK   40  A    between atoms: _88  and  _91
REMARK   41  A    between atoms: _93  and  _95
REMARK   42  A    between atoms: _95  and  _96
REMARK   43  A    between atoms: _95  and  _98
REMARK   44  A    between atoms: _98  and  _99
REMARK   45  A    between atoms: _101  and  _103
REMARK   46  A    between atoms: _103  and  _104
REMARK   47  A    between atoms: _103  and  _106
REMARK   48  A    between atoms: _109  and  _111
REMARK   49  A    between atoms: _111  and  _112
REMARK   50  A    between atoms: _111  and  _114
REMARK   51  A    between atoms: _114  and  _115
REMARK   52  A    between atoms: _118  and  _120
REMARK   53  A    between atoms: _120  and  _121
REMARK   54  A    between atoms: _120  and  _123
REMARK   55  A    between atoms: _123  and  _124
REMARK   56  A    between atoms: _124  and  _125
REMARK   57  A    between atoms: _125  and  _126
REMARK   58  A    between atoms: _126  and  _127
REMARK   59  A    between atoms: _131  and  _133
REMARK   60  A    between atoms: _133  and  _134
REMARK   61  A    between atoms: _133  and  _136
REMARK   62  A    between atoms: _136  and  _137
REMARK   63  A    between atoms: _140  and  _142
REMARK   64  A    between atoms: _142  and  _143
REMARK   65  A    between atoms: _142  and  _145
REMARK   66  A    between atoms: _145  and  _146
REMARK   67  A    between atoms: _149  and  _151
REMARK   68  A    between atoms: _151  and  _152
REMARK   69  A    between atoms: _155  and  _157
REMARK   70  A    between atoms: _157  and  _158
REMARK   71  A    between atoms: _157  and  _160
REMARK   72  A    between atoms: _160  and  _161
REMARK   73  A    between atoms: _164  and  _166
REMARK   74  A    between atoms: _166  and  _167
REMARK   75  A    between atoms: _166  and  _169
REMARK   76  A    between atoms: _169  and  _170
REMARK   77  A    between atoms: _175  and  _176
REMARK   78  A    between atoms: _178  and  _180
REMARK   79  A    between atoms: _180  and  _181
REMARK   80  A    between atoms: _180  and  _183
REMARK   81  A    between atoms: _183  and  _184
REMARK   82  A    between atoms: _190  and  _192
REMARK   83  A    between atoms: _192  and  _193
REMARK   84  A    between atoms: _192  and  _195
REMARK   85  A    between atoms: _195  and  _196
REMARK   86  A    between atoms: _196  and  _197
REMARK   87  A    between atoms: _199  and  _201
REMARK   88  A    between atoms: _201  and  _202
REMARK   89  A    between atoms: _201  and  _204
REMARK   90  A    between atoms: _207  and  _209
REMARK   91  A    between atoms: _209  and  _210
REMARK   92  A    between atoms: _212  and  _214
REMARK   93  A    between atoms: _214  and  _215
REMARK   94  A    between atoms: _214  and  _217
REMARK   95  A    between atoms: _217  and  _218
REMARK   96  A    between atoms: _218  and  _219
REMARK   97  A    between atoms: _224  and  _226
REMARK   98  A    between atoms: _226  and  _227
REMARK   99  A    between atoms: _226  and  _229
REMARK  100  A    between atoms: _229  and  _230
REMARK  101  A    between atoms: _233  and  _235
REMARK  102  A    between atoms: _235  and  _236
REMARK  103  A    between atoms: _238  and  _240
REMARK  104  A    between atoms: _240  and  _241
REMARK  105  A    between atoms: _240  and  _243
REMARK  106  A    between atoms: _243  and  _244
REMARK  107  A    between atoms: _250  and  _252
REMARK  108  A    between atoms: _252  and  _253
REMARK  109  A    between atoms: _252  and  _255
REMARK  110  A    between atoms: _255  and  _256
REMARK  111  A    between atoms: _261  and  _262
REMARK  112  A    between atoms: _264  and  _266
REMARK  113  A    between atoms: _266  and  _267
REMARK  114  A    between atoms: _266  and  _269
REMARK  115  A    between atoms: _272  and  _274
REMARK  116  A    between atoms: _274  and  _275
REMARK  117  A    between atoms: _278  and  _280
REMARK  118  A    between atoms: _280  and  _281
REMARK  119  A    between atoms: _280  and  _283
REMARK  120  A    between atoms: _283  and  _284
REMARK  121  A    between atoms: _289  and  _290
REMARK  122  A    between atoms: _292  and  _294
REMARK  123  A    between atoms: _294  and  _295
REMARK  124  A    between atoms: _294  and  _297
REMARK  125  A    between atoms: _297  and  _298
REMARK                            x       y       z     vdW  Elec       q    Type
REMARK                         _______ _______ _______ _____ _____    ______ ____
ROOT
ATOM      1  CB  PHE A   1      10.692 -24.992 -39.387  0.00  0.00    +0.051 C 
ENDROOT
BRANCH   1   2
ATOM      2  CG  PHE A   1       9.823 -26.018 -38.709  0.00  0.00    -0.020 A 
ATOM      3  CD2 PHE A   1       8.581 -25.639 -38.172  0.00  0.00    -0.004 A 
ATOM      4  CE2 PHE A   1       7.743 -26.574 -37.562  0.00  0.00    -0.000 A 
ATOM      5  CZ  PHE A   1       8.145 -27.913 -37.480  0.00  0.00    -0.000 A 
ATOM      6  CE1 PHE A   1       9.373 -28.304 -38.026  0.00  0.00    -0.000 A 
ATOM      7  CD1 PHE A   1      10.200 -27.348 -38.654  0.00  0.00    -0.004 A 
ENDBRANCH   1   2
BRANCH   1   8
ATOM      8  CA  PHE A   1      12.190 -25.339 -39.406  0.00  0.00    +0.137 C 
BRANCH   8   9
ATOM      9  N   PHE A   1      12.795 -25.181 -38.074  0.00  0.00    -0.239 NA
ATOM     10  H   PHE A   1      12.195 -24.897 -37.273  0.00  0.00    +0.142 HD
ENDBRANCH   8   9
BRANCH   8  11
ATOM     11  C   PHE A   1      12.847 -24.481 -40.473  0.00  0.00    +0.224 C 
ATOM     12  O   PHE A   1      13.120 -24.964 -41.570  0.00  0.00    -0.287 OA
ENDBRANCH   8  11
ENDBRANCH   1   8
TORSDOF 4
REMARK  Name = ../refined-set-2016/4mrw/4mrw_pocket.pdb
REMARK  125 active torsions:
REMARK  status: ('A' for Active; 'I' for Inactive)
REMARK    1  A    between atoms: _1  and  _3
REMARK    2  A    between atoms: _3  and  _4
REMARK    3  A    between atoms: _3  and  _6
REMARK    4  A    between atoms: _6  and  _7
REMARK    5  A    between atoms: _12  and  _13
REMARK    6  A    between atoms: _15  and  _17
REMARK    7  A    between atoms: _17  and  _18
REMARK    8  A    between atoms: _17  and  _20
REMARK    9  A    between atoms: _20  and  _21
REMARK   10  A    between atoms: _26  and  _28
REMARK   11  A    between atoms: _28  and  _29
REMARK   12  A    between atoms: _28  and  _31
REMARK   13  A    between atoms: _31  and  _32
REMARK   14  A    between atoms: _36  and  NI_308
REMARK   15  A    between atoms: _37  and  _39
REMARK   16  A    between atoms: _39  and  _40
REMARK   17  A    between atoms: _39  and  _42
REMARK   18  A    between atoms: _42  and  _43
REMARK   19  A    between atoms: _46  and  _48
REMARK   20  A    between atoms: _48  and  _49
REMARK   21  A    between atoms: _48  and  _51
REMARK   22  A    between atoms: _51  and  _52
REMARK   23  A    between atoms: _55  and  _57
REMARK   24  A    between atoms: _57  and  _58
REMARK   25  A    between atoms: _61  and  _63
REMARK   26  A    between atoms: _63  and  _64
REMARK   27  A    between atoms: _63  and  _66
REMARK   28  A    between atoms: _68  and  _70
REMARK   29  A    between atoms: _70  and  _71
REMARK   30  A    between atoms: _70  and  _73
REMARK   31  A    between atoms: _73  and  _74
REMARK   32  A    between atoms: _74  and  _76
REMARK   33  A    between atoms: _76  and  NI_308
REMARK   34  A    between atoms: _77  and  _79
REMARK   35  A    between atoms: _79  and  _80
REMARK   36  A    between atoms: _79  and  _82
REMARK   37  A    between atoms: _82  and  _83
REMARK   38  A    between atoms: _86  and  _88
REMARK   39  A    between atoms: _88  and  _89
REMARK   40  A    between atoms: _88  and  _91
REMARK   41  A    between atoms: _93  and  _95
REMARK   42  A    between atoms: _95  and  _96
REMARK   43  A    between atoms: _95  and  _98
REMARK   44  A    between atoms: _98  and  _99
REMARK   45  A    between atoms: _101  and  _103
REMARK   46  A    between atoms: _103  and  _104
REMARK   47  A    between atoms: _103  and  _106
REMARK   48  A    between atoms: _109  and  _111
REMARK   49  A    between atoms: _111  and  _112
REMARK   50  A    between atoms: _111  and  _114
REMARK   51  A    between atoms: _114  and  _115
REMARK   52  A    between atoms: _118  and  _120
REMARK   53  A    between atoms: _120  and  _121
REMARK   54  A    between atoms: _120  and  _123
REMARK   55  A    between atoms: _123  and  _124
REMARK   56  A    between atoms: _124  and  _125
REMARK   57  A    between atoms: _125  and  _126
REMARK   58  A    between atoms: _126  and  _127
REMARK   59  A    between atoms: _131  and  _133
REMARK   60  A    between atoms: _133  and  _134
REMARK   61  A    between atoms: _133  and  _136
REMARK   62  A    between atoms: _136  and  _137
REMARK   63  A    between atoms: _140  and  _142
REMARK   64  A    between atoms: _142  and  _143
REMARK   65  A    between atoms: _142  and  _145
REMARK   66  A    between atoms: _145  and  _146
REMARK   67  A    between atoms: _149  and  _151
REMARK   68  A    between atoms: _151  and  _152
REMARK   69  A    between atoms: _155  and  _157
REMARK   70  A    between atoms: _157  and  _158
REMARK   71  A    between atoms: _157  and  _160
REMARK   72  A    between atoms: _160  and  _161
REMARK   73  A    between atoms: _164  and  _166
REMARK   74  A    between atoms: _166  and  _167
REMARK   75  A    between atoms: _166  and  _169
REMARK   76  A    between atoms: _169  and  _170
REMARK   77  A    between atoms: _175  and  _176
REMARK   78  A    between atoms: _178  and  _180
REMARK   79  A    between atoms: _180  and  _181
REMARK   80  A    between atoms: _180  and  _183
REMARK   81  A    between atoms: _183  and  _184
REMARK   82  A    between atoms: _190  and  _192
REMARK   83  A    between atoms: _192  and  _193
REMARK   84  A    between atoms: _192  and  _195
REMARK   85  A    between atoms: _195  and  _196
REMARK   86  A    between atoms: _196  and  _197
REMARK   87  A    between atoms: _199  and  _201
REMARK   88  A    between atoms: _201  and  _202
REMARK   89  A    between atoms: _201  and  _204
REMARK   90  A    between atoms: _207  and  _209
REMARK   91  A    between atoms: _209  and  _210
REMARK   92  A    between atoms: _212  and  _214
REMARK   93  A    between atoms: _214  and  _215
REMARK   94  A    between atoms: _214  and  _217
REMARK   95  A    between atoms: _217  and  _218
REMARK   96  A    between atoms: _218  and  _219
REMARK   97  A    between atoms: _224  and  _226
REMARK   98  A    between atoms: _226  and  _227
REMARK   99  A    between atoms: _226  and  _229
REMARK  100  A    between atoms: _229  and  _230
REMARK  101  A    between atoms: _233  and  _235
REMARK  102  A    between atoms: _235  and  _236
REMARK  103  A    between atoms: _238  and  _240
REMARK  104  A    between atoms: _240  and  _241
REMARK  105  A    between atoms: _240  and  _243
REMARK  106  A    between atoms: _243  and  _244
REMARK  107  A    between atoms: _250  and  _252
REMARK  108  A    between atoms: _252  and  _253
REMARK  109  A    between atoms: _252  and  _255
REMARK  110  A    between atoms: _255  and  _256
REMARK  111  A    between atoms: _261  and  _262
REMARK  112  A    between atoms: _264  and  _266
REMARK  113  A    between atoms: _266  and  _267
REMARK  114  A    between atoms: _266  and  _269
REMARK  115  A    between atoms: _272  and  _274
REMARK  116  A    between atoms: _274  and  _275
REMARK  117  A    between atoms: _278  and  _280
REMARK  118  A    between atoms: _280  and  _281
REMARK  119  A    between atoms: _280  and  _283
REMARK  120  A    between atoms: _283  and  _284
REMARK  121  A    between atoms: _289  and  _290
REMARK  122  A    between atoms: _292  and  _294
REMARK  123  A    between atoms: _294  and  _295
REMARK  124  A    between atoms: _294  and  _297
REMARK  125  A    between atoms: _297  and  _298
REMARK                            x       y       z     vdW  Elec       q    Type
REMARK                         _______ _______ _______ _____ _____    ______ ____
ROOT
ATOM      1  CA  MET A   1       6.280 -23.698 -42.836  0.00  0.00    +0.134 C 
ENDROOT
BRANCH   1   2
ATOM      2  N   MET A   1       5.954 -23.561 -44.257  0.00  0.00    -0.239 NA
ATOM      3  H   MET A   1       5.413 -24.319 -44.720  0.00  0.00    +0.142 HD
ENDBRANCH   1   2
BRANCH   1   4
ATOM      4  C   MET A   1       7.795 -23.606 -42.555  0.00  0.00    +0.224 C 
ATOM      5  O   MET A   1       8.209 -23.212 -41.470  0.00  0.00    -0.287 OA
ENDBRANCH   1   4
BRANCH   1   6
ATOM      6  CB  MET A   1       5.774 -25.031 -42.298  0.00  0.00    +0.037 C 
BRANCH   6   7
ATOM      7  CG  MET A   1       5.429 -25.028 -40.812  0.00  0.00    +0.059 C 
BRANCH   7   8
ATOM      8  SD  MET A   1       5.051 -26.647 -40.119  0.00  0.00    -0.139 S 
ATOM      9  CE  MET A   1       6.465 -27.576 -40.686  0.00  0.00    +0.069 C 
ENDBRANCH   7   8
ENDBRANCH   6   7
ENDBRANCH   1   6
TORSDOF 5
REMARK  Name = ../refined-set-2016/4mrw/4mrw_pocket.pdb
REMARK  125 active torsions:
REMARK  status: ('A' for Active; 'I' for Inactive)
REMARK    1  A    between atoms: _1  and  _3
REMARK    2  A    between atoms: _3  and  _4
REMARK    3  A    between atoms: _3  and  _6
REMARK    4  A    between atoms: _6  and  _7
REMARK    5  A    between atoms: _12  and  _13
REMARK    6  A    between atoms: _15  and  _17
REMARK    7  A    between atoms: _17  and  _18
REMARK    8  A    between atoms: _17  and  _20
REMARK    9  A    between atoms: _20  and  _21
REMARK   10  A    between atoms: _26  and  _28
REMARK   11  A    between atoms: _28  and  _29
REMARK   12  A    between atoms: _28  and  _31
REMARK   13  A    between atoms: _31  and  _32
REMARK   14  A    between atoms: _36  and  NI_308
REMARK   15  A    between atoms: _37  and  _39
REMARK   16  A    between atoms: _39  and  _40
REMARK   17  A    between atoms: _39  and  _42
REMARK   18  A    between atoms: _42  and  _43
REMARK   19  A    between atoms: _46  and  _48
REMARK   20  A    between atoms: _48  and  _49
REMARK   21  A    between atoms: _48  and  _51
REMARK   22  A    between atoms: _51  and  _52
REMARK   23  A    between atoms: _55  and  _57
REMARK   24  A    between atoms: _57  and  _58
REMARK   25  A    between atoms: _61  and  _63
REMARK   26  A    between atoms: _63  and  _64
REMARK   27  A    between atoms: _63  and  _66
REMARK   28  A    between atoms: _68  and  _70
REMARK   29  A    between atoms: _70  and  _71
REMARK   30  A    between atoms: _70  and  _73
REMARK   31  A    between atoms: _73  and  _74
REMARK   32  A    between atoms: _74  and  _76
REMARK   33  A    between atoms: _76  and  NI_308
REMARK   34  A    between atoms: _77  and  _79
REMARK   35  A    between atoms: _79  and  _80
REMARK   36  A    between atoms: _79  and  _82
REMARK   37  A    between atoms: _82  and  _83
REMARK   38  A    between atoms: _86  and  _88
REMARK   39  A    between atoms: _88  and  _89
REMARK   40  A    between atoms: _88  and  _91
REMARK   41  A    between atoms: _93  and  _95
REMARK   42  A    between atoms: _95  and  _96
REMARK   43  A    between atoms: _95  and  _98
REMARK   44  A    between atoms: _98  and  _99
REMARK   45  A    between atoms: _101  and  _103
REMARK   46  A    between atoms: _103  and  _104
REMARK   47  A    between atoms: _103  and  _106
REMARK   48  A    between atoms: _109  and  _111
REMARK   49  A    between atoms: _111  and  _112
REMARK   50  A    between atoms: _111  and  _114
REMARK   51  A    between atoms: _114  and  _115
REMARK   52  A    between atoms: _118  and  _120
REMARK   53  A    between atoms: _120  and  _121
REMARK   54  A    between atoms: _120  and  _123
REMARK   55  A    between atoms: _123  and  _124
REMARK   56  A    between atoms: _124  and  _125
REMARK   57  A    between atoms: _125  and  _126
REMARK   58  A    between atoms: _126  and  _127
REMARK   59  A    between atoms: _131  and  _133
REMARK   60  A    between atoms: _133  and  _134
REMARK   61  A    between atoms: _133  and  _136
REMARK   62  A    between atoms: _136  and  _137
REMARK   63  A    between atoms: _140  and  _142
REMARK   64  A    between atoms: _142  and  _143
REMARK   65  A    between atoms: _142  and  _145
REMARK   66  A    between atoms: _145  and  _146
REMARK   67  A    between atoms: _149  and  _151
REMARK   68  A    between atoms: _151  and  _152
REMARK   69  A    between atoms: _155  and  _157
REMARK   70  A    between atoms: _157  and  _158
REMARK   71  A    between atoms: _157  and  _160
REMARK   72  A    between atoms: _160  and  _161
REMARK   73  A    between atoms: _164  and  _166
REMARK   74  A    between atoms: _166  and  _167
REMARK   75  A    between atoms: _166  and  _169
REMARK   76  A    between atoms: _169  and  _170
REMARK   77  A    between atoms: _175  and  _176
REMARK   78  A    between atoms: _178  and  _180
REMARK   79  A    between atoms: _180  and  _181
REMARK   80  A    between atoms: _180  and  _183
REMARK   81  A    between atoms: _183  and  _184
REMARK   82  A    between atoms: _190  and  _192
REMARK   83  A    between atoms: _192  and  _193
REMARK   84  A    between atoms: _192  and  _195
REMARK   85  A    between atoms: _195  and  _196
REMARK   86  A    between atoms: _196  and  _197
REMARK   87  A    between atoms: _199  and  _201
REMARK   88  A    between atoms: _201  and  _202
REMARK   89  A    between atoms: _201  and  _204
REMARK   90  A    between atoms: _207  and  _209
REMARK   91  A    between atoms: _209  and  _210
REMARK   92  A    between atoms: _212  and  _214
REMARK   93  A    between atoms: _214  and  _215
REMARK   94  A    between atoms: _214  and  _217
REMARK   95  A    between atoms: _217  and  _218
REMARK   96  A    between atoms: _218  and  _219
REMARK   97  A    between atoms: _224  and  _226
REMARK   98  A    between atoms: _226  and  _227
REMARK   99  A    between atoms: _226  and  _229
REMARK  100  A    between atoms: _229  and  _230
REMARK  101  A    between atoms: _233  and  _235
REMARK  102  A    between atoms: _235  and  _236
REMARK  103  A    between atoms: _238  and  _240
REMARK  104  A    between atoms: _240  and  _241
REMARK  105  A    between atoms: _240  and  _243
REMARK  106  A    between atoms: _243  and  _244
REMARK  107  A    between atoms: _250  and  _252
REMARK  108  A    between atoms: _252  and  _253
REMARK  109  A    between atoms: _252  and  _255
REMARK  110  A    between atoms: _255  and  _256
REMARK  111  A    between atoms: _261  and  _262
REMARK  112  A    between atoms: _264  and  _266
REMARK  113  A    between atoms: _266  and  _267
REMARK  114  A    between atoms: _266  and  _269
REMARK  115  A    between atoms: _272  and  _274
REMARK  116  A    between atoms: _274  and  _275
REMARK  117  A    between atoms: _278  and  _280
REMARK  118  A    between atoms: _280  and  _281
REMARK  119  A    between atoms: _280  and  _283
REMARK  120  A    between atoms: _283  and  _284
REMARK  121  A    between atoms: _289  and  _290
REMARK  122  A    between atoms: _292  and  _294
REMARK  123  A    between atoms: _294  and  _295
REMARK  124  A    between atoms: _294  and  _297
REMARK  125  A    between atoms: _297  and  _298
REMARK                            x       y       z     vdW  Elec       q    Type
REMARK                         _______ _______ _______ _____ _____    ______ ____
ROOT
ATOM      1  CA  VAL A   1       2.948 -18.813 -39.348  0.00  0.00    +0.133 C 
ENDROOT
BRANCH   1   2
ATOM      2  CB  VAL A   1       4.077 -18.312 -38.453  0.00  0.00    +0.023 C 
ATOM      3  CG2 VAL A   1       4.018 -18.977 -37.083  0.00  0.00    +0.002 C 
ATOM      4  CG1 VAL A   1       5.463 -18.551 -39.132  0.00  0.00    +0.002 C 
ENDBRANCH   1   2
BRANCH   1   5
ATOM      5  N   VAL A   1       2.840 -18.025 -40.587  0.00  0.00    -0.239 NA
ATOM      6  H   VAL A   1       3.488 -17.224 -40.727  0.00  0.00    +0.142 HD
ENDBRANCH   1   5
BRANCH   1   7
ATOM      7  C   VAL A   1       1.625 -18.939 -38.550  0.00  0.00    +0.224 C 
ATOM      8  O   VAL A   1       1.220 -20.037 -38.196  0.00  0.00    -0.287 OA
ENDBRANCH   1   7
TORSDOF 3
REMARK  Name = ../refined-set-2016/4mrw/4mrw_pocket.pdb
REMARK  125 active torsions:
REMARK  status: ('A' for Active; 'I' for Inactive)
REMARK    1  A    between atoms: _1  and  _3
REMARK    2  A    between atoms: _3  and  _4
REMARK    3  A    between atoms: _3  and  _6
REMARK    4  A    between atoms: _6  and  _7
REMARK    5  A    between atoms: _12  and  _13
REMARK    6  A    between atoms: _15  and  _17
REMARK    7  A    between atoms: _17  and  _18
REMARK    8  A    between atoms: _17  and  _20
REMARK    9  A    between atoms: _20  and  _21
REMARK   10  A    between atoms: _26  and  _28
REMARK   11  A    between atoms: _28  and  _29
REMARK   12  A    between atoms: _28  and  _31
REMARK   13  A    between atoms: _31  and  _32
REMARK   14  A    between atoms: _36  and  NI_308
REMARK   15  A    between atoms: _37  and  _39
REMARK   16  A    between atoms: _39  and  _40
REMARK   17  A    between atoms: _39  and  _42
REMARK   18  A    between atoms: _42  and  _43
REMARK   19  A    between atoms: _46  and  _48
REMARK   20  A    between atoms: _48  and  _49
REMARK   21  A    between atoms: _48  and  _51
REMARK   22  A    between atoms: _51  and  _52
REMARK   23  A    between atoms: _55  and  _57
REMARK   24  A    between atoms: _57  and  _58
REMARK   25  A    between atoms: _61  and  _63
REMARK   26  A    between atoms: _63  and  _64
REMARK   27  A    between atoms: _63  and  _66
REMARK   28  A    between atoms: _68  and  _70
REMARK   29  A    between atoms: _70  and  _71
REMARK   30  A    between atoms: _70  and  _73
REMARK   31  A    between atoms: _73  and  _74
REMARK   32  A    between atoms: _74  and  _76
REMARK   33  A    between atoms: _76  and  NI_308
REMARK   34  A    between atoms: _77  and  _79
REMARK   35  A    between atoms: _79  and  _80
REMARK   36  A    between atoms: _79  and  _82
REMARK   37  A    between atoms: _82  and  _83
REMARK   38  A    between atoms: _86  and  _88
REMARK   39  A    between atoms: _88  and  _89
REMARK   40  A    between atoms: _88  and  _91
REMARK   41  A    between atoms: _93  and  _95
REMARK   42  A    between atoms: _95  and  _96
REMARK   43  A    between atoms: _95  and  _98
REMARK   44  A    between atoms: _98  and  _99
REMARK   45  A    between atoms: _101  and  _103
REMARK   46  A    between atoms: _103  and  _104
REMARK   47  A    between atoms: _103  and  _106
REMARK   48  A    between atoms: _109  and  _111
REMARK   49  A    between atoms: _111  and  _112
REMARK   50  A    between atoms: _111  and  _114
REMARK   51  A    between atoms: _114  and  _115
REMARK   52  A    between atoms: _118  and  _120
REMARK   53  A    between atoms: _120  and  _121
REMARK   54  A    between atoms: _120  and  _123
REMARK   55  A    between atoms: _123  and  _124
REMARK   56  A    between atoms: _124  and  _125
REMARK   57  A    between atoms: _125  and  _126
REMARK   58  A    between atoms: _126  and  _127
REMARK   59  A    between atoms: _131  and  _133
REMARK   60  A    between atoms: _133  and  _134
REMARK   61  A    between atoms: _133  and  _136
REMARK   62  A    between atoms: _136  and  _137
REMARK   63  A    between atoms: _140  and  _142
REMARK   64  A    between atoms: _142  and  _143
REMARK   65  A    between atoms: _142  and  _145
REMARK   66  A    between atoms: _145  and  _146
REMARK   67  A    between atoms: _149  and  _151
REMARK   68  A    between atoms: _151  and  _152
REMARK   69  A    between atoms: _155  and  _157
REMARK   70  A    between atoms: _157  and  _158
REMARK   71  A    between atoms: _157  and  _160
REMARK   72  A    between atoms: _160  and  _161
REMARK   73  A    between atoms: _164  and  _166
REMARK   74  A    between atoms: _166  and  _167
REMARK   75  A    between atoms: _166  and  _169
REMARK   76  A    between atoms: _169  and  _170
REMARK   77  A    between atoms: _175  and  _176
REMARK   78  A    between atoms: _178  and  _180
REMARK   79  A    between atoms: _180  and  _181
REMARK   80  A    between atoms: _180  and  _183
REMARK   81  A    between atoms: _183  and  _184
REMARK   82  A    between atoms: _190  and  _192
REMARK   83  A    between atoms: _192  and  _193
REMARK   84  A    between atoms: _192  and  _195
REMARK   85  A    between atoms: _195  and  _196
REMARK   86  A    between atoms: _196  and  _197
REMARK   87  A    between atoms: _199  and  _201
REMARK   88  A    between atoms: _201  and  _202
REMARK   89  A    between atoms: _201  and  _204
REMARK   90  A    between atoms: _207  and  _209
REMARK   91  A    between atoms: _209  and  _210
REMARK   92  A    between atoms: _212  and  _214
REMARK   93  A    between atoms: _214  and  _215
REMARK   94  A    between atoms: _214  and  _217
REMARK   95  A    between atoms: _217  and  _218
REMARK   96  A    between atoms: _218  and  _219
REMARK   97  A    between atoms: _224  and  _226
REMARK   98  A    between atoms: _226  and  _227
REMARK   99  A    between atoms: _226  and  _229
REMARK  100  A    between atoms: _229  and  _230
REMARK  101  A    between atoms: _233  and  _235
REMARK  102  A    between atoms: _235  and  _236
REMARK  103  A    between atoms: _238  and  _240
REMARK  104  A    between atoms: _240  and  _241
REMARK  105  A    between atoms: _240  and  _243
REMARK  106  A    between atoms: _243  and  _244
REMARK  107  A    between atoms: _250  and  _252
REMARK  108  A    between atoms: _252  and  _253
REMARK  109  A    between atoms: _252  and  _255
REMARK  110  A    between atoms: _255  and  _256
REMARK  111  A    between atoms: _261  and  _262
REMARK  112  A    between atoms: _264  and  _266
REMARK  113  A    between atoms: _266  and  _267
REMARK  114  A    between atoms: _266  and  _269
REMARK  115  A    between atoms: _272  and  _274
REMARK  116  A    between atoms: _274  and  _275
REMARK  117  A    between atoms: _278  and  _280
REMARK  118  A    between atoms: _280  and  _281
REMARK  119  A    between atoms: _280  and  _283
REMARK  120  A    between atoms: _283  and  _284
REMARK  121  A    between atoms: _289  and  _290
REMARK  122  A    between atoms: _292  and  _294
REMARK  123  A    between atoms: _294  and  _295
REMARK  124  A    between atoms: _294  and  _297
REMARK  125  A    between atoms: _297  and  _298
REMARK                            x       y       z     vdW  Elec       q    Type
REMARK                         _______ _______ _______ _____ _____    ______ ____
ROOT
ATOM      1  CA  GLY A   4      -3.920 -25.659 -39.206  0.00  0.00    +0.176 C 
ENDROOT
BRANCH   1   2
ATOM      2  C   GLY A   4      -3.343 -26.847 -38.451  0.00  0.00    +0.243 C 
ATOM      3  N   PHE A   5      -2.151 -26.676 -37.864  0.00  0.00    -0.297 N 
ATOM      4  H   PHE A   5      -1.620 -25.799 -38.040  0.00  0.00    +0.150 HD
ATOM      5  O   GLY A   4      -3.971 -27.906 -38.388  0.00  0.00    -0.273 OA
BRANCH   3   6
ATOM      6  CA  PHE A   5      -1.581 -27.688 -36.986  0.00  0.00    +0.153 C 
BRANCH   6   7
ATOM      7  C   PHE A   5      -2.497 -28.012 -35.788  0.00  0.00    +0.241 C 
ATOM      8  N   TYR A   6      -3.035 -27.000 -35.106  0.00  0.00    -0.298 N 
ATOM      9  H   TYR A   6      -2.809 -26.021 -35.375  0.00  0.00    +0.150 HD
ATOM     10  O   PHE A   5      -2.692 -29.170 -35.481  0.00  0.00    -0.273 OA
BRANCH   8  11
ATOM     11  CA  TYR A   6      -3.952 -27.255 -33.968  0.00  0.00    +0.141 C 
BRANCH  11  12
ATOM     12  C   TYR A   6      -5.207 -27.991 -34.431  0.00  0.00    +0.227 C 
ATOM     13  O   TYR A   6      -5.644 -28.949 -33.793  0.00  0.00    -0.286 OA
ENDBRANCH  11  12
BRANCH  11  14
ATOM     14  CB  TYR A   6      -4.357 -25.959 -33.236  0.00  0.00    +0.054 C 
BRANCH  14  15
ATOM     15  CG  TYR A   6      -3.320 -25.404 -32.259  0.00  0.00    -0.020 A 
ATOM     16  CD2 TYR A   6      -3.630 -25.242 -30.910  0.00  0.00    -0.001 A 
ATOM     17  CE2 TYR A   6      -2.685 -24.714 -30.003  0.00  0.00    +0.036 A 
ATOM     18  CZ  TYR A   6      -1.438 -24.342 -30.458  0.00  0.00    +0.134 A 
ATOM     19  CE1 TYR A   6      -1.103 -24.498 -31.793  0.00  0.00    +0.036 A 
ATOM     20  CD1 TYR A   6      -2.051 -25.017 -32.691  0.00  0.00    -0.001 A 
BRANCH  18  21
ATOM     21  OH  TYR A   6      -0.520 -23.826 -29.566  0.00  0.00    -0.506 OA
ATOM     22  HH  TYR A   6       0.319 -23.610 -30.045  0.00  0.00    +0.292 HD
ENDBRANCH  18  21
ENDBRANCH  14  15
ENDBRANCH  11  14
ENDBRANCH   8  11
ENDBRANCH   6   7
BRANCH   6  23
ATOM     23  CB  PHE A   5      -0.186 -27.296 -36.489  0.00  0.00    +0.055 C 
BRANCH  23  24
ATOM     24  CG  PHE A   5       0.486 -28.372 -35.697  0.00  0.00    -0.020 A 
ATOM     25  CD2 PHE A   5       0.439 -28.361 -34.291  0.00  0.00    -0.004 A 
ATOM     26  CE2 PHE A   5       1.054 -29.370 -33.555  0.00  0.00    -0.000 A 
ATOM     27  CZ  PHE A   5       1.738 -30.417 -34.220  0.00  0.00    -0.000 A 
ATOM     28  CE1 PHE A   5       1.779 -30.439 -35.620  0.00  0.00    -0.000 A 
ATOM     29  CD1 PHE A   5       1.158 -29.422 -36.345  0.00  0.00    -0.004 A 
ENDBRANCH  23  24
ENDBRANCH   6  23
ENDBRANCH   3   6
ENDBRANCH   1   2
BRANCH   1  32
ATOM     30  C   LEU A   3      -4.338 -24.180 -37.283  0.00  0.00    +0.241 C 
ATOM     31  O   LEU A   3      -4.978 -25.055 -36.677  0.00  0.00    -0.273 OA
ATOM     32  N   GLY A   4      -3.775 -24.395 -38.476  0.00  0.00    -0.295 N 
ATOM     33  H   GLY A   4      -3.210 -23.634 -38.905  0.00  0.00    +0.150 HD
BRANCH  30  34
ATOM     34  CA  LEU A   3      -4.131 -22.785 -36.657  0.00  0.00    +0.149 C 
BRANCH  34  37
ATOM     35  C   GLN A   2      -1.851 -23.310 -36.217  0.00  0.00    +0.241 C 
ATOM     36  O   GLN A   2      -2.205 -24.362 -35.704  0.00  0.00    -0.273 OA
ATOM     37  N   LEU A   3      -2.717 -22.439 -36.676  0.00  0.00    -0.297 N 
ATOM     38  H   LEU A   3      -2.400 -21.520 -37.046  0.00  0.00    +0.150 HD
BRANCH  35  39
ATOM     39  CA  GLN A   2      -0.372 -22.955 -36.363  0.00  0.00    +0.149 C 
BRANCH  39  41
ATOM     40  C   GLY A   1      -0.211 -23.286 -38.769  0.00  0.00    +0.240 C 
ATOM     41  N   GLN A   2      -0.128 -22.471 -37.718  0.00  0.00    -0.297 N 
ATOM     42  H   GLN A   2       0.115 -21.471 -37.866  0.00  0.00    +0.150 HD
ATOM     43  O   GLY A   1      -0.400 -24.492 -38.656  0.00  0.00    -0.274 OA
BRANCH  40  44
ATOM     44  CA  GLY A   1      -0.070 -22.660 -40.152  0.00  0.00    +0.169 C 
BRANCH  44  45
ATOM     45  N   GLY A   1      -0.648 -21.327 -40.201  0.00  0.00    -0.236 NA
ATOM     46  H   GLY A   1      -0.019 -20.506 -40.305  0.00  0.00    +0.142 HD
ENDBRANCH  44  45
ENDBRANCH  40  44
ENDBRANCH  39  41
BRANCH  39  47
ATOM     47  CB  GLN A   2       0.021 -21.907 -35.327  0.00  0.00    +0.039 C 
BRANCH  47  48
ATOM     48  CG  GLN A   2       1.530 -21.845 -35.094  0.00  0.00    +0.087 C 
BRANCH  48  49
ATOM     49  CD  GLN A   2       2.074 -23.179 -34.675  0.00  0.00    +0.219 C 
ATOM     50  NE2 GLN A   2       1.847 -23.541 -33.437  0.00  0.00    -0.329 N 
ATOM     51 HE21 GLN A   2       1.338 -22.902 -32.793  0.00  0.00    +0.145 HD
ATOM     52 HE22 GLN A   2       2.176 -24.467 -33.098  0.00  0.00    +0.145 HD
ATOM     53  OE1 GLN A   2       2.674 -23.901 -35.480  0.00  0.00    -0.275 OA
ENDBRANCH  48  49
ENDBRANCH  47  48
ENDBRANCH  39  47
ENDBRANCH  35  39
ENDBRANCH  34  37
BRANCH  34  54
ATOM     54  CB  LEU A   3      -4.918 -21.717 -37.382  0.00  0.00    +0.029 C 
BRANCH  54  55
ATOM     55  CG  LEU A   3      -6.437 -21.886 -37.386  0.00  0.00    +0.002 C 
ATOM     56  CD2 LEU A   3      -7.075 -20.534 -37.423  0.00  0.00    +0.000 C 
ATOM     57  CD1 LEU A   3      -6.831 -22.680 -38.610  0.00  0.00    +0.000 C 
ENDBRANCH  54  55
ENDBRANCH  34  54
ENDBRANCH  30  34
ENDBRANCH   1  32
TORSDOF 22
REMARK  Name = ../refined-set-2016/4mrw/4mrw_pocket.pdb
REMARK  125 active torsions:
REMARK  status: ('A' for Active; 'I' for Inactive)
REMARK    1  A    between atoms: _1  and  _3
REMARK    2  A    between atoms: _3  and  _4
REMARK    3  A    between atoms: _3  and  _6
REMARK    4  A    between atoms: _6  and  _7
REMARK    5  A    between atoms: _12  and  _13
REMARK    6  A    between atoms: _15  and  _17
REMARK    7  A    between atoms: _17  and  _18
REMARK    8  A    between atoms: _17  and  _20
REMARK    9  A    between atoms: _20  and  _21
REMARK   10  A    between atoms: _26  and  _28
REMARK   11  A    between atoms: _28  and  _29
REMARK   12  A    between atoms: _28  and  _31
REMARK   13  A    between atoms: _31  and  _32
REMARK   14  A    between atoms: _36  and  NI_308
REMARK   15  A    between atoms: _37  and  _39
REMARK   16  A    between atoms: _39  and  _40
REMARK   17  A    between atoms: _39  and  _42
REMARK   18  A    between atoms: _42  and  _43
REMARK   19  A    between atoms: _46  and  _48
REMARK   20  A    between atoms: _48  and  _49
REMARK   21  A    between atoms: _48  and  _51
REMARK   22  A    between atoms: _51  and  _52
REMARK   23  A    between atoms: _55  and  _57
REMARK   24  A    between atoms: _57  and  _58
REMARK   25  A    between atoms: _61  and  _63
REMARK   26  A    between atoms: _63  and  _64
REMARK   27  A    between atoms: _63  and  _66
REMARK   28  A    between atoms: _68  and  _70
REMARK   29  A    between atoms: _70  and  _71
REMARK   30  A    between atoms: _70  and  _73
REMARK   31  A    between atoms: _73  and  _74
REMARK   32  A    between atoms: _74  and  _76
REMARK   33  A    between atoms: _76  and  NI_308
REMARK   34  A    between atoms: _77  and  _79
REMARK   35  A    between atoms: _79  and  _80
REMARK   36  A    between atoms: _79  and  _82
REMARK   37  A    between atoms: _82  and  _83
REMARK   38  A    between atoms: _86  and  _88
REMARK   39  A    between atoms: _88  and  _89
REMARK   40  A    between atoms: _88  and  _91
REMARK   41  A    between atoms: _93  and  _95
REMARK   42  A    between atoms: _95  and  _96
REMARK   43  A    between atoms: _95  and  _98
REMARK   44  A    between atoms: _98  and  _99
REMARK   45  A    between atoms: _101  and  _103
REMARK   46  A    between atoms: _103  and  _104
REMARK   47  A    between atoms: _103  and  _106
REMARK   48  A    between atoms: _109  and  _111
REMARK   49  A    between atoms: _111  and  _112
REMARK   50  A    between atoms: _111  and  _114
REMARK   51  A    between atoms: _114  and  _115
REMARK   52  A    between atoms: _118  and  _120
REMARK   53  A    between atoms: _120  and  _121
REMARK   54  A    between atoms: _120  and  _123
REMARK   55  A    between atoms: _123  and  _124
REMARK   56  A    between atoms: _124  and  _125
REMARK   57  A    between atoms: _125  and  _126
REMARK   58  A    between atoms: _126  and  _127
REMARK   59  A    between atoms: _131  and  _133
REMARK   60  A    between atoms: _133  and  _134
REMARK   61  A    between atoms: _133  and  _136
REMARK   62  A    between atoms: _136  and  _137
REMARK   63  A    between atoms: _140  and  _142
REMARK   64  A    between atoms: _142  and  _143
REMARK   65  A    between atoms: _142  and  _145
REMARK   66  A    between atoms: _145  and  _146
REMARK   67  A    between atoms: _149  and  _151
REMARK   68  A    between atoms: _151  and  _152
REMARK   69  A    between atoms: _155  and  _157
REMARK   70  A    between atoms: _157  and  _158
REMARK   71  A    between atoms: _157  and  _160
REMARK   72  A    between atoms: _160  and  _161
REMARK   73  A    between atoms: _164  and  _166
REMARK   74  A    between atoms: _166  and  _167
REMARK   75  A    between atoms: _166  and  _169
REMARK   76  A    between atoms: _169  and  _170
REMARK   77  A    between atoms: _175  and  _176
REMARK   78  A    between atoms: _178  and  _180
REMARK   79  A    between atoms: _180  and  _181
REMARK   80  A    between atoms: _180  and  _183
REMARK   81  A    between atoms: _183  and  _184
REMARK   82  A    between atoms: _190  and  _192
REMARK   83  A    between atoms: _192  and  _193
REMARK   84  A    between atoms: _192  and  _195
REMARK   85  A    between atoms: _195  and  _196
REMARK   86  A    between atoms: _196  and  _197
REMARK   87  A    between atoms: _199  and  _201
REMARK   88  A    between atoms: _201  and  _202
REMARK   89  A    between atoms: _201  and  _204
REMARK   90  A    between atoms: _207  and  _209
REMARK   91  A    between atoms: _209  and  _210
REMARK   92  A    between atoms: _212  and  _214
REMARK   93  A    between atoms: _214  and  _215
REMARK   94  A    between atoms: _214  and  _217
REMARK   95  A    between atoms: _217  and  _218
REMARK   96  A    between atoms: _218  and  _219
REMARK   97  A    between atoms: _224  and  _226
REMARK   98  A    between atoms: _226  and  _227
REMARK   99  A    between atoms: _226  and  _229
REMARK  100  A    between atoms: _229  and  _230
REMARK  101  A    between atoms: _233  and  _235
REMARK  102  A    between atoms: _235  and  _236
REMARK  103  A    between atoms: _238  and  _240
REMARK  104  A    between atoms: _240  and  _241
REMARK  105  A    between atoms: _240  and  _243
REMARK  106  A    between atoms: _243  and  _244
REMARK  107  A    between atoms: _250  and  _252
REMARK  108  A    between atoms: _252  and  _253
REMARK  109  A    between atoms: _252  and  _255
REMARK  110  A    between atoms: _255  and  _256
REMARK  111  A    between atoms: _261  and  _262
REMARK  112  A    between atoms: _264  and  _266
REMARK  113  A    between atoms: _266  and  _267
REMARK  114  A    between atoms: _266  and  _269
REMARK  115  A    between atoms: _272  and  _274
REMARK  116  A    between atoms: _274  and  _275
REMARK  117  A    between atoms: _278  and  _280
REMARK  118  A    between atoms: _280  and  _281
REMARK  119  A    between atoms: _280  and  _283
REMARK  120  A    between atoms: _283  and  _284
REMARK  121  A    between atoms: _289  and  _290
REMARK  122  A    between atoms: _292  and  _294
REMARK  123  A    between atoms: _294  and  _295
REMARK  124  A    between atoms: _294  and  _297
REMARK  125  A    between atoms: _297  and  _298
REMARK                            x       y       z     vdW  Elec       q    Type
REMARK                         _______ _______ _______ _____ _____    ______ ____
ROOT
ATOM      1  C   VAL A   1      -3.541 -32.426 -33.473  0.00  0.00    +0.238 C 
ATOM      2  O   VAL A   1      -3.953 -33.402 -32.875  0.00  0.00    -0.274 OA
ATOM      3  N   ALA A   2      -3.331 -31.241 -32.885  0.00  0.00    -0.298 N 
ATOM      4  H   ALA A   2      -3.186 -30.394 -33.470  0.00  0.00    +0.150 HD
ENDROOT
BRANCH   3   5
ATOM      5  CA  ALA A   2      -3.303 -31.127 -31.417  0.00  0.00    +0.137 C 
ATOM      6  CB  ALA A   2      -2.652 -29.838 -30.970  0.00  0.00    +0.030 C 
BRANCH   5   7
ATOM      7  C   ALA A   2      -4.701 -31.245 -30.831  0.00  0.00    +0.227 C 
ATOM      8  O   ALA A   2      -4.923 -32.042 -29.921  0.00  0.00    -0.286 OA
ENDBRANCH   5   7
ENDBRANCH   3   5
BRANCH   1   9
ATOM      9  CA  VAL A   1      -3.225 -32.562 -34.947  0.00  0.00    +0.145 C 
BRANCH   9  10
ATOM     10  CB  VAL A   1      -1.693 -32.354 -35.157  0.00  0.00    +0.025 C 
ATOM     11  CG2 VAL A   1      -0.901 -33.329 -34.293  0.00  0.00    +0.002 C 
ATOM     12  CG1 VAL A   1      -1.323 -32.517 -36.632  0.00  0.00    +0.002 C 
ENDBRANCH   9  10
BRANCH   9  13
ATOM     13  N   VAL A   1      -4.028 -31.698 -35.793  0.00  0.00    -0.238 NA
ATOM     14  H   VAL A   1      -4.059 -30.676 -35.605  0.00  0.00    +0.142 HD
ENDBRANCH   9  13
ENDBRANCH   1   9
TORSDOF 5
REMARK  Name = ../refined-set-2016/4mrw/4mrw_pocket.pdb
REMARK  125 active torsions:
REMARK  status: ('A' for Active; 'I' for Inactive)
REMARK    1  A    between atoms: _1  and  _3
REMARK    2  A    between atoms: _3  and  _4
REMARK    3  A    between atoms: _3  and  _6
REMARK    4  A    between atoms: _6  and  _7
REMARK    5  A    between atoms: _12  and  _13
REMARK    6  A    between atoms: _15  and  _17
REMARK    7  A    between atoms: _17  and  _18
REMARK    8  A    between atoms: _17  and  _20
REMARK    9  A    between atoms: _20  and  _21
REMARK   10  A    between atoms: _26  and  _28
REMARK   11  A    between atoms: _28  and  _29
REMARK   12  A    between atoms: _28  and  _31
REMARK   13  A    between atoms: _31  and  _32
REMARK   14  A    between atoms: _36  and  NI_308
REMARK   15  A    between atoms: _37  and  _39
REMARK   16  A    between atoms: _39  and  _40
REMARK   17  A    between atoms: _39  and  _42
REMARK   18  A    between atoms: _42  and  _43
REMARK   19  A    between atoms: _46  and  _48
REMARK   20  A    between atoms: _48  and  _49
REMARK   21  A    between atoms: _48  and  _51
REMARK   22  A    between atoms: _51  and  _52
REMARK   23  A    between atoms: _55  and  _57
REMARK   24  A    between atoms: _57  and  _58
REMARK   25  A    between atoms: _61  and  _63
REMARK   26  A    between atoms: _63  and  _64
REMARK   27  A    between atoms: _63  and  _66
REMARK   28  A    between atoms: _68  and  _70
REMARK   29  A    between atoms: _70  and  _71
REMARK   30  A    between atoms: _70  and  _73
REMARK   31  A    between atoms: _73  and  _74
REMARK   32  A    between atoms: _74  and  _76
REMARK   33  A    between atoms: _76  and  NI_308
REMARK   34  A    between atoms: _77  and  _79
REMARK   35  A    between atoms: _79  and  _80
REMARK   36  A    between atoms: _79  and  _82
REMARK   37  A    between atoms: _82  and  _83
REMARK   38  A    between atoms: _86  and  _88
REMARK   39  A    between atoms: _88  and  _89
REMARK   40  A    between atoms: _88  and  _91
REMARK   41  A    between atoms: _93  and  _95
REMARK   42  A    between atoms: _95  and  _96
REMARK   43  A    between atoms: _95  and  _98
REMARK   44  A    between atoms: _98  and  _99
REMARK   45  A    between atoms: _101  and  _103
REMARK   46  A    between atoms: _103  and  _104
REMARK   47  A    between atoms: _103  and  _106
REMARK   48  A    between atoms: _109  and  _111
REMARK   49  A    between atoms: _111  and  _112
REMARK   50  A    between atoms: _111  and  _114
REMARK   51  A    between atoms: _114  and  _115
REMARK   52  A    between atoms: _118  and  _120
REMARK   53  A    between atoms: _120  and  _121
REMARK   54  A    between atoms: _120  and  _123
REMARK   55  A    between atoms: _123  and  _124
REMARK   56  A    between atoms: _124  and  _125
REMARK   57  A    between atoms: _125  and  _126
REMARK   58  A    between atoms: _126  and  _127
REMARK   59  A    between atoms: _131  and  _133
REMARK   60  A    between atoms: _133  and  _134
REMARK   61  A    between atoms: _133  and  _136
REMARK   62  A    between atoms: _136  and  _137
REMARK   63  A    between atoms: _140  and  _142
REMARK   64  A    between atoms: _142  and  _143
REMARK   65  A    between atoms: _142  and  _145
REMARK   66  A    between atoms: _145  and  _146
REMARK   67  A    between atoms: _149  and  _151
REMARK   68  A    between atoms: _151  and  _152
REMARK   69  A    between atoms: _155  and  _157
REMARK   70  A    between atoms: _157  and  _158
REMARK   71  A    between atoms: _157  and  _160
REMARK   72  A    between atoms: _160  and  _161
REMARK   73  A    between atoms: _164  and  _166
REMARK   74  A    between atoms: _166  and  _167
REMARK   75  A    between atoms: _166  and  _169
REMARK   76  A    between atoms: _169  and  _170
REMARK   77  A    between atoms: _175  and  _176
REMARK   78  A    between atoms: _178  and  _180
REMARK   79  A    between atoms: _180  and  _181
REMARK   80  A    between atoms: _180  and  _183
REMARK   81  A    between atoms: _183  and  _184
REMARK   82  A    between atoms: _190  and  _192
REMARK   83  A    between atoms: _192  and  _193
REMARK   84  A    between atoms: _192  and  _195
REMARK   85  A    between atoms: _195  and  _196
REMARK   86  A    between atoms: _196  and  _197
REMARK   87  A    between atoms: _199  and  _201
REMARK   88  A    between atoms: _201  and  _202
REMARK   89  A    between atoms: _201  and  _204
REMARK   90  A    between atoms: _207  and  _209
REMARK   91  A    between atoms: _209  and  _210
REMARK   92  A    between atoms: _212  and  _214
REMARK   93  A    between atoms: _214  and  _215
REMARK   94  A    between atoms: _214  and  _217
REMARK   95  A    between atoms: _217  and  _218
REMARK   96  A    between atoms: _218  and  _219
REMARK   97  A    between atoms: _224  and  _226
REMARK   98  A    between atoms: _226  and  _227
REMARK   99  A    between atoms: _226  and  _229
REMARK  100  A    between atoms: _229  and  _230
REMARK  101  A    between atoms: _233  and  _235
REMARK  102  A    between atoms: _235  and  _236
REMARK  103  A    between atoms: _238  and  _240
REMARK  104  A    between atoms: _240  and  _241
REMARK  105  A    between atoms: _240  and  _243
REMARK  106  A    between atoms: _243  and  _244
REMARK  107  A    between atoms: _250  and  _252
REMARK  108  A    between atoms: _252  and  _253
REMARK  109  A    between atoms: _252  and  _255
REMARK  110  A    between atoms: _255  and  _256
REMARK  111  A    between atoms: _261  and  _262
REMARK  112  A    between atoms: _264  and  _266
REMARK  113  A    between atoms: _266  and  _267
REMARK  114  A    between atoms: _266  and  _269
REMARK  115  A    between atoms: _272  and  _274
REMARK  116  A    between atoms: _274  and  _275
REMARK  117  A    between atoms: _278  and  _280
REMARK  118  A    between atoms: _280  and  _281
REMARK  119  A    between atoms: _280  and  _283
REMARK  120  A    between atoms: _283  and  _284
REMARK  121  A    between atoms: _289  and  _290
REMARK  122  A    between atoms: _292  and  _294
REMARK  123  A    between atoms: _294  and  _295
REMARK  124  A    between atoms: _294  and  _297
REMARK  125  A    between atoms: _297  and  _298
REMARK                            x       y       z     vdW  Elec       q    Type
REMARK                         _______ _______ _______ _____ _____    ______ ____
ROOT
ATOM      1  CG  TYR A   1      -4.336 -32.456 -26.228  0.00  0.00    -0.020 A 
ATOM      2  CD2 TYR A   1      -3.509 -33.132 -25.343  0.00  0.00    -0.001 A 
ATOM      3  CE2 TYR A   1      -2.081 -32.915 -25.358  0.00  0.00    +0.036 A 
ATOM      4  CZ  TYR A   1      -1.524 -32.044 -26.281  0.00  0.00    +0.134 A 
ATOM      5  CE1 TYR A   1      -2.320 -31.372 -27.174  0.00  0.00    +0.036 A 
ATOM      6  CD1 TYR A   1      -3.741 -31.576 -27.140  0.00  0.00    -0.001 A 
ENDROOT
BRANCH   4   7
ATOM      7  OH  TYR A   1      -0.136 -31.849 -26.298  0.00  0.00    -0.506 OA
ATOM      8  HH  TYR A   1       0.315 -32.712 -26.474  0.00  0.00    +0.292 HD
ENDBRANCH   4   7
BRANCH   1   9
ATOM      9  CB  TYR A   1      -5.842 -32.695 -26.231  0.00  0.00    +0.051 C 
BRANCH   9  10
ATOM     10  CA  TYR A   1      -6.203 -34.119 -26.723  0.00  0.00    +0.137 C 
BRANCH  10  11
ATOM     11  N   TYR A   1      -5.765 -34.330 -28.104  0.00  0.00    -0.239 NA
ATOM     12  H   TYR A   1      -5.539 -33.499 -28.687  0.00  0.00    +0.142 HD
ENDBRANCH  10  11
BRANCH  10  13
ATOM     13  C   TYR A   1      -7.681 -34.415 -26.545  0.00  0.00    +0.224 C 
ATOM     14  O   TYR A   1      -8.092 -34.819 -25.474  0.00  0.00    -0.287 OA
ENDBRANCH  10  13
ENDBRANCH   9  10
ENDBRANCH   1   9
TORSDOF 5
REMARK  Name = ../refined-set-2016/4mrw/4mrw_pocket.pdb
REMARK  125 active torsions:
REMARK  status: ('A' for Active; 'I' for Inactive)
REMARK    1  A    between atoms: _1  and  _3
REMARK    2  A    between atoms: _3  and  _4
REMARK    3  A    between atoms: _3  and  _6
REMARK    4  A    between atoms: _6  and  _7
REMARK    5  A    between atoms: _12  and  _13
REMARK    6  A    between atoms: _15  and  _17
REMARK    7  A    between atoms: _17  and  _18
REMARK    8  A    between atoms: _17  and  _20
REMARK    9  A    between atoms: _20  and  _21
REMARK   10  A    between atoms: _26  and  _28
REMARK   11  A    between atoms: _28  and  _29
REMARK   12  A    between atoms: _28  and  _31
REMARK   13  A    between atoms: _31  and  _32
REMARK   14  A    between atoms: _36  and  NI_308
REMARK   15  A    between atoms: _37  and  _39
REMARK   16  A    between atoms: _39  and  _40
REMARK   17  A    between atoms: _39  and  _42
REMARK   18  A    between atoms: _42  and  _43
REMARK   19  A    between atoms: _46  and  _48
REMARK   20  A    between atoms: _48  and  _49
REMARK   21  A    between atoms: _48  and  _51
REMARK   22  A    between atoms: _51  and  _52
REMARK   23  A    between atoms: _55  and  _57
REMARK   24  A    between atoms: _57  and  _58
REMARK   25  A    between atoms: _61  and  _63
REMARK   26  A    between atoms: _63  and  _64
REMARK   27  A    between atoms: _63  and  _66
REMARK   28  A    between atoms: _68  and  _70
REMARK   29  A    between atoms: _70  and  _71
REMARK   30  A    between atoms: _70  and  _73
REMARK   31  A    between atoms: _73  and  _74
REMARK   32  A    between atoms: _74  and  _76
REMARK   33  A    between atoms: _76  and  NI_308
REMARK   34  A    between atoms: _77  and  _79
REMARK   35  A    between atoms: _79  and  _80
REMARK   36  A    between atoms: _79  and  _82
REMARK   37  A    between atoms: _82  and  _83
REMARK   38  A    between atoms: _86  and  _88
REMARK   39  A    between atoms: _88  and  _89
REMARK   40  A    between atoms: _88  and  _91
REMARK   41  A    between atoms: _93  and  _95
REMARK   42  A    between atoms: _95  and  _96
REMARK   43  A    between atoms: _95  and  _98
REMARK   44  A    between atoms: _98  and  _99
REMARK   45  A    between atoms: _101  and  _103
REMARK   46  A    between atoms: _103  and  _104
REMARK   47  A    between atoms: _103  and  _106
REMARK   48  A    between atoms: _109  and  _111
REMARK   49  A    between atoms: _111  and  _112
REMARK   50  A    between atoms: _111  and  _114
REMARK   51  A    between atoms: _114  and  _115
REMARK   52  A    between atoms: _118  and  _120
REMARK   53  A    between atoms: _120  and  _121
REMARK   54  A    between atoms: _120  and  _123
REMARK   55  A    between atoms: _123  and  _124
REMARK   56  A    between atoms: _124  and  _125
REMARK   57  A    between atoms: _125  and  _126
REMARK   58  A    between atoms: _126  and  _127
REMARK   59  A    between atoms: _131  and  _133
REMARK   60  A    between atoms: _133  and  _134
REMARK   61  A    between atoms: _133  and  _136
REMARK   62  A    between atoms: _136  and  _137
REMARK   63  A    between atoms: _140  and  _142
REMARK   64  A    between atoms: _142  and  _143
REMARK   65  A    between atoms: _142  and  _145
REMARK   66  A    between atoms: _145  and  _146
REMARK   67  A    between atoms: _149  and  _151
REMARK   68  A    between atoms: _151  and  _152
REMARK   69  A    between atoms: _155  and  _157
REMARK   70  A    between atoms: _157  and  _158
REMARK   71  A    between atoms: _157  and  _160
REMARK   72  A    between atoms: _160  and  _161
REMARK   73  A    between atoms: _164  and  _166
REMARK   74  A    between atoms: _166  and  _167
REMARK   75  A    between atoms: _166  and  _169
REMARK   76  A    between atoms: _169  and  _170
REMARK   77  A    between atoms: _175  and  _176
REMARK   78  A    between atoms: _178  and  _180
REMARK   79  A    between atoms: _180  and  _181
REMARK   80  A    between atoms: _180  and  _183
REMARK   81  A    between atoms: _183  and  _184
REMARK   82  A    between atoms: _190  and  _192
REMARK   83  A    between atoms: _192  and  _193
REMARK   84  A    between atoms: _192  and  _195
REMARK   85  A    between atoms: _195  and  _196
REMARK   86  A    between atoms: _196  and  _197
REMARK   87  A    between atoms: _199  and  _201
REMARK   88  A    between atoms: _201  and  _202
REMARK   89  A    between atoms: _201  and  _204
REMARK   90  A    between atoms: _207  and  _209
REMARK   91  A    between atoms: _209  and  _210
REMARK   92  A    between atoms: _212  and  _214
REMARK   93  A    between atoms: _214  and  _215
REMARK   94  A    between atoms: _214  and  _217
REMARK   95  A    between atoms: _217  and  _218
REMARK   96  A    between atoms: _218  and  _219
REMARK   97  A    between atoms: _224  and  _226
REMARK   98  A    between atoms: _226  and  _227
REMARK   99  A    between atoms: _226  and  _229
REMARK  100  A    between atoms: _229  and  _230
REMARK  101  A    between atoms: _233  and  _235
REMARK  102  A    between atoms: _235  and  _236
REMARK  103  A    between atoms: _238  and  _240
REMARK  104  A    between atoms: _240  and  _241
REMARK  105  A    between atoms: _240  and  _243
REMARK  106  A    between atoms: _243  and  _244
REMARK  107  A    between atoms: _250  and  _252
REMARK  108  A    between atoms: _252  and  _253
REMARK  109  A    between atoms: _252  and  _255
REMARK  110  A    between atoms: _255  and  _256
REMARK  111  A    between atoms: _261  and  _262
REMARK  112  A    between atoms: _264  and  _266
REMARK  113  A    between atoms: _266  and  _267
REMARK  114  A    between atoms: _266  and  _269
REMARK  115  A    between atoms: _272  and  _274
REMARK  116  A    between atoms: _274  and  _275
REMARK  117  A    between atoms: _278  and  _280
REMARK  118  A    between atoms: _280  and  _281
REMARK  119  A    between atoms: _280  and  _283
REMARK  120  A    between atoms: _283  and  _284
REMARK  121  A    between atoms: _289  and  _290
REMARK  122  A    between atoms: _292  and  _294
REMARK  123  A    between atoms: _294  and  _295
REMARK  124  A    between atoms: _294  and  _297
REMARK  125  A    between atoms: _297  and  _298
REMARK                            x       y       z     vdW  Elec       q    Type
REMARK                         _______ _______ _______ _____ _____    ______ ____
ROOT
ATOM      1  CG  TRP A   1      -1.888 -19.835 -32.640  0.00  0.00    -0.002 A 
ATOM      2  CD1 TRP A   1      -1.698 -20.909 -31.823  0.00  0.00    +0.068 A 
ATOM      3  NE1 TRP A   1      -0.346 -21.046 -31.540  0.00  0.00    -0.352 N 
ATOM      4  HE1 TRP A   1       0.076 -21.796 -30.956  0.00  0.00    +0.166 HD
ATOM      5  CE2 TRP A   1       0.342 -20.035 -32.154  0.00  0.00    +0.056 A 
ATOM      6  CZ2 TRP A   1       1.715 -19.743 -32.147  0.00  0.00    +0.017 A 
ATOM      7  CH2 TRP A   1       2.133 -18.663 -32.873  0.00  0.00    +0.001 A 
ATOM      8  CZ3 TRP A   1       1.239 -17.876 -33.588  0.00  0.00    +0.000 A 
ATOM      9  CE3 TRP A   1      -0.127 -18.162 -33.603  0.00  0.00    +0.001 A 
ATOM     10  CD2 TRP A   1      -0.590 -19.261 -32.867  0.00  0.00    +0.013 A 
ENDROOT
BRANCH   1  11
ATOM     11  CB  TRP A   1      -3.186 -19.349 -33.182  0.00  0.00    +0.053 C 
BRANCH  11  12
ATOM     12  CA  TRP A   1      -3.595 -17.998 -32.586  0.00  0.00    +0.137 C 
BRANCH  12  13
ATOM     13  N   TRP A   1      -4.074 -18.096 -31.196  0.00  0.00    -0.239 NA
ATOM     14  H   TRP A   1      -4.258 -19.027 -30.771  0.00  0.00    +0.142 HD
ENDBRANCH  12  13
BRANCH  12  15
ATOM     15  C   TRP A   1      -4.648 -17.327 -33.442  0.00  0.00    +0.224 C 
ATOM     16  O   TRP A   1      -4.322 -16.536 -34.324  0.00  0.00    -0.287 OA
ENDBRANCH  12  15
ENDBRANCH  11  12
ENDBRANCH   1  11
TORSDOF 4
REMARK  Name = ../refined-set-2016/4mrw/4mrw_pocket.pdb
REMARK  125 active torsions:
REMARK  status: ('A' for Active; 'I' for Inactive)
REMARK    1  A    between atoms: _1  and  _3
REMARK    2  A    between atoms: _3  and  _4
REMARK    3  A    between atoms: _3  and  _6
REMARK    4  A    between atoms: _6  and  _7
REMARK    5  A    between atoms: _12  and  _13
REMARK    6  A    between atoms: _15  and  _17
REMARK    7  A    between atoms: _17  and  _18
REMARK    8  A    between atoms: _17  and  _20
REMARK    9  A    between atoms: _20  and  _21
REMARK   10  A    between atoms: _26  and  _28
REMARK   11  A    between atoms: _28  and  _29
REMARK   12  A    between atoms: _28  and  _31
REMARK   13  A    between atoms: _31  and  _32
REMARK   14  A    between atoms: _36  and  NI_308
REMARK   15  A    between atoms: _37  and  _39
REMARK   16  A    between atoms: _39  and  _40
REMARK   17  A    between atoms: _39  and  _42
REMARK   18  A    between atoms: _42  and  _43
REMARK   19  A    between atoms: _46  and  _48
REMARK   20  A    between atoms: _48  and  _49
REMARK   21  A    between atoms: _48  and  _51
REMARK   22  A    between atoms: _51  and  _52
REMARK   23  A    between atoms: _55  and  _57
REMARK   24  A    between atoms: _57  and  _58
REMARK   25  A    between atoms: _61  and  _63
REMARK   26  A    between atoms: _63  and  _64
REMARK   27  A    between atoms: _63  and  _66
REMARK   28  A    between atoms: _68  and  _70
REMARK   29  A    between atoms: _70  and  _71
REMARK   30  A    between atoms: _70  and  _73
REMARK   31  A    between atoms: _73  and  _74
REMARK   32  A    between atoms: _74  and  _76
REMARK   33  A    between atoms: _76  and  NI_308
REMARK   34  A    between atoms: _77  and  _79
REMARK   35  A    between atoms: _79  and  _80
REMARK   36  A    between atoms: _79  and  _82
REMARK   37  A    between atoms: _82  and  _83
REMARK   38  A    between atoms: _86  and  _88
REMARK   39  A    between atoms: _88  and  _89
REMARK   40  A    between atoms: _88  and  _91
REMARK   41  A    between atoms: _93  and  _95
REMARK   42  A    between atoms: _95  and  _96
REMARK   43  A    between atoms: _95  and  _98
REMARK   44  A    between atoms: _98  and  _99
REMARK   45  A    between atoms: _101  and  _103
REMARK   46  A    between atoms: _103  and  _104
REMARK   47  A    between atoms: _103  and  _106
REMARK   48  A    between atoms: _109  and  _111
REMARK   49  A    between atoms: _111  and  _112
REMARK   50  A    between atoms: _111  and  _114
REMARK   51  A    between atoms: _114  and  _115
REMARK   52  A    between atoms: _118  and  _120
REMARK   53  A    between atoms: _120  and  _121
REMARK   54  A    between atoms: _120  and  _123
REMARK   55  A    between atoms: _123  and  _124
REMARK   56  A    between atoms: _124  and  _125
REMARK   57  A    between atoms: _125  and  _126
REMARK   58  A    between atoms: _126  and  _127
REMARK   59  A    between atoms: _131  and  _133
REMARK   60  A    between atoms: _133  and  _134
REMARK   61  A    between atoms: _133  and  _136
REMARK   62  A    between atoms: _136  and  _137
REMARK   63  A    between atoms: _140  and  _142
REMARK   64  A    between atoms: _142  and  _143
REMARK   65  A    between atoms: _142  and  _145
REMARK   66  A    between atoms: _145  and  _146
REMARK   67  A    between atoms: _149  and  _151
REMARK   68  A    between atoms: _151  and  _152
REMARK   69  A    between atoms: _155  and  _157
REMARK   70  A    between atoms: _157  and  _158
REMARK   71  A    between atoms: _157  and  _160
REMARK   72  A    between atoms: _160  and  _161
REMARK   73  A    between atoms: _164  and  _166
REMARK   74  A    between atoms: _166  and  _167
REMARK   75  A    between atoms: _166  and  _169
REMARK   76  A    between atoms: _169  and  _170
REMARK   77  A    between atoms: _175  and  _176
REMARK   78  A    between atoms: _178  and  _180
REMARK   79  A    between atoms: _180  and  _181
REMARK   80  A    between atoms: _180  and  _183
REMARK   81  A    between atoms: _183  and  _184
REMARK   82  A    between atoms: _190  and  _192
REMARK   83  A    between atoms: _192  and  _193
REMARK   84  A    between atoms: _192  and  _195
REMARK   85  A    between atoms: _195  and  _196
REMARK   86  A    between atoms: _196  and  _197
REMARK   87  A    between atoms: _199  and  _201
REMARK   88  A    between atoms: _201  and  _202
REMARK   89  A    between atoms: _201  and  _204
REMARK   90  A    between atoms: _207  and  _209
REMARK   91  A    between atoms: _209  and  _210
REMARK   92  A    between atoms: _212  and  _214
REMARK   93  A    between atoms: _214  and  _215
REMARK   94  A    between atoms: _214  and  _217
REMARK   95  A    between atoms: _217  and  _218
REMARK   96  A    between atoms: _218  and  _219
REMARK   97  A    between atoms: _224  and  _226
REMARK   98  A    between atoms: _226  and  _227
REMARK   99  A    between atoms: _226  and  _229
REMARK  100  A    between atoms: _229  and  _230
REMARK  101  A    between atoms: _233  and  _235
REMARK  102  A    between atoms: _235  and  _236
REMARK  103  A    between atoms: _238  and  _240
REMARK  104  A    between atoms: _240  and  _241
REMARK  105  A    between atoms: _240  and  _243
REMARK  106  A    between atoms: _243  and  _244
REMARK  107  A    between atoms: _250  and  _252
REMARK  108  A    between atoms: _252  and  _253
REMARK  109  A    between atoms: _252  and  _255
REMARK  110  A    between atoms: _255  and  _256
REMARK  111  A    between atoms: _261  and  _262
REMARK  112  A    between atoms: _264  and  _266
REMARK  113  A    between atoms: _266  and  _267
REMARK  114  A    between atoms: _266  and  _269
REMARK  115  A    between atoms: _272  and  _274
REMARK  116  A    between atoms: _274  and  _275
REMARK  117  A    between atoms: _278  and  _280
REMARK  118  A    between atoms: _280  and  _281
REMARK  119  A    between atoms: _280  and  _283
REMARK  120  A    between atoms: _283  and  _284
REMARK  121  A    between atoms: _289  and  _290
REMARK  122  A    between atoms: _292  and  _294
REMARK  123  A    between atoms: _294  and  _295
REMARK  124  A    between atoms: _294  and  _297
REMARK  125  A    between atoms: _297  and  _298
REMARK                            x       y       z     vdW  Elec       q    Type
REMARK                         _______ _______ _______ _____ _____    ______ ____
ROOT
ATOM      1  O   HOH     1       5.750 -29.632 -27.278  0.00  0.00    +0.000 OA
ENDROOT
TORSDOF 0
REMARK  Name = ../refined-set-2016/4mrw/4mrw_pocket.pdb
REMARK  125 active torsions:
REMARK  status: ('A' for Active; 'I' for Inactive)
REMARK    1  A    between atoms: _1  and  _3
REMARK    2  A    between atoms: _3  and  _4
REMARK    3  A    between atoms: _3  and  _6
REMARK    4  A    between atoms: _6  and  _7
REMARK    5  A    between atoms: _12  and  _13
REMARK    6  A    between atoms: _15  and  _17
REMARK    7  A    between atoms: _17  and  _18
REMARK    8  A    between atoms: _17  and  _20
REMARK    9  A    between atoms: _20  and  _21
REMARK   10  A    between atoms: _26  and  _28
REMARK   11  A    between atoms: _28  and  _29
REMARK   12  A    between atoms: _28  and  _31
REMARK   13  A    between atoms: _31  and  _32
REMARK   14  A    between atoms: _36  and  NI_308
REMARK   15  A    between atoms: _37  and  _39
REMARK   16  A    between atoms: _39  and  _40
REMARK   17  A    between atoms: _39  and  _42
REMARK   18  A    between atoms: _42  and  _43
REMARK   19  A    between atoms: _46  and  _48
REMARK   20  A    between atoms: _48  and  _49
REMARK   21  A    between atoms: _48  and  _51
REMARK   22  A    between atoms: _51  and  _52
REMARK   23  A    between atoms: _55  and  _57
REMARK   24  A    between atoms: _57  and  _58
REMARK   25  A    between atoms: _61  and  _63
REMARK   26  A    between atoms: _63  and  _64
REMARK   27  A    between atoms: _63  and  _66
REMARK   28  A    between atoms: _68  and  _70
REMARK   29  A    between atoms: _70  and  _71
REMARK   30  A    between atoms: _70  and  _73
REMARK   31  A    between atoms: _73  and  _74
REMARK   32  A    between atoms: _74  and  _76
REMARK   33  A    between atoms: _76  and  NI_308
REMARK   34  A    between atoms: _77  and  _79
REMARK   35  A    between atoms: _79  and  _80
REMARK   36  A    between atoms: _79  and  _82
REMARK   37  A    between atoms: _82  and  _83
REMARK   38  A    between atoms: _86  and  _88
REMARK   39  A    between atoms: _88  and  _89
REMARK   40  A    between atoms: _88  and  _91
REMARK   41  A    between atoms: _93  and  _95
REMARK   42  A    between atoms: _95  and  _96
REMARK   43  A    between atoms: _95  and  _98
REMARK   44  A    between atoms: _98  and  _99
REMARK   45  A    between atoms: _101  and  _103
REMARK   46  A    between atoms: _103  and  _104
REMARK   47  A    between atoms: _103  and  _106
REMARK   48  A    between atoms: _109  and  _111
REMARK   49  A    between atoms: _111  and  _112
REMARK   50  A    between atoms: _111  and  _114
REMARK   51  A    between atoms: _114  and  _115
REMARK   52  A    between atoms: _118  and  _120
REMARK   53  A    between atoms: _120  and  _121
REMARK   54  A    between atoms: _120  and  _123
REMARK   55  A    between atoms: _123  and  _124
REMARK   56  A    between atoms: _124  and  _125
REMARK   57  A    between atoms: _125  and  _126
REMARK   58  A    between atoms: _126  and  _127
REMARK   59  A    between atoms: _131  and  _133
REMARK   60  A    between atoms: _133  and  _134
REMARK   61  A    between atoms: _133  and  _136
REMARK   62  A    between atoms: _136  and  _137
REMARK   63  A    between atoms: _140  and  _142
REMARK   64  A    between atoms: _142  and  _143
REMARK   65  A    between atoms: _142  and  _145
REMARK   66  A    between atoms: _145  and  _146
REMARK   67  A    between atoms: _149  and  _151
REMARK   68  A    between atoms: _151  and  _152
REMARK   69  A    between atoms: _155  and  _157
REMARK   70  A    between atoms: _157  and  _158
REMARK   71  A    between atoms: _157  and  _160
REMARK   72  A    between atoms: _160  and  _161
REMARK   73  A    between atoms: _164  and  _166
REMARK   74  A    between atoms: _166  and  _167
REMARK   75  A    between atoms: _166  and  _169
REMARK   76  A    between atoms: _169  and  _170
REMARK   77  A    between atoms: _175  and  _176
REMARK   78  A    between atoms: _178  and  _180
REMARK   79  A    between atoms: _180  and  _181
REMARK   80  A    between atoms: _180  and  _183
REMARK   81  A    between atoms: _183  and  _184
REMARK   82  A    between atoms: _190  and  _192
REMARK   83  A    between atoms: _192  and  _193
REMARK   84  A    between atoms: _192  and  _195
REMARK   85  A    between atoms: _195  and  _196
REMARK   86  A    between atoms: _196  and  _197
REMARK   87  A    between atoms: _199  and  _201
REMARK   88  A    between atoms: _201  and  _202
REMARK   89  A    between atoms: _201  and  _204
REMARK   90  A    between atoms: _207  and  _209
REMARK   91  A    between atoms: _209  and  _210
REMARK   92  A    between atoms: _212  and  _214
REMARK   93  A    between atoms: _214  and  _215
REMARK   94  A    between atoms: _214  and  _217
REMARK   95  A    between atoms: _217  and  _218
REMARK   96  A    between atoms: _218  and  _219
REMARK   97  A    between atoms: _224  and  _226
REMARK   98  A    between atoms: _226  and  _227
REMARK   99  A    between atoms: _226  and  _229
REMARK  100  A    between atoms: _229  and  _230
REMARK  101  A    between atoms: _233  and  _235
REMARK  102  A    between atoms: _235  and  _236
REMARK  103  A    between atoms: _238  and  _240
REMARK  104  A    between atoms: _240  and  _241
REMARK  105  A    between atoms: _240  and  _243
REMARK  106  A    between atoms: _243  and  _244
REMARK  107  A    between atoms: _250  and  _252
REMARK  108  A    between atoms: _252  and  _253
REMARK  109  A    between atoms: _252  and  _255
REMARK  110  A    between atoms: _255  and  _256
REMARK  111  A    between atoms: _261  and  _262
REMARK  112  A    between atoms: _264  and  _266
REMARK  113  A    between atoms: _266  and  _267
REMARK  114  A    between atoms: _266  and  _269
REMARK  115  A    between atoms: _272  and  _274
REMARK  116  A    between atoms: _274  and  _275
REMARK  117  A    between atoms: _278  and  _280
REMARK  118  A    between atoms: _280  and  _281
REMARK  119  A    between atoms: _280  and  _283
REMARK  120  A    between atoms: _283  and  _284
REMARK  121  A    between atoms: _289  and  _290
REMARK  122  A    between atoms: _292  and  _294
REMARK  123  A    between atoms: _294  and  _295
REMARK  124  A    between atoms: _294  and  _297
REMARK  125  A    between atoms: _297  and  _298
REMARK                            x       y       z     vdW  Elec       q    Type
REMARK                         _______ _______ _______ _____ _____    ______ ____
ROOT
ATOM      1  O   HOH     1       9.400 -32.964 -31.379  0.00  0.00    +0.000 OA
ENDROOT
TORSDOF 0
REMARK  Name = ../refined-set-2016/4mrw/4mrw_pocket.pdb
REMARK  125 active torsions:
REMARK  status: ('A' for Active; 'I' for Inactive)
REMARK    1  A    between atoms: _1  and  _3
REMARK    2  A    between atoms: _3  and  _4
REMARK    3  A    between atoms: _3  and  _6
REMARK    4  A    between atoms: _6  and  _7
REMARK    5  A    between atoms: _12  and  _13
REMARK    6  A    between atoms: _15  and  _17
REMARK    7  A    between atoms: _17  and  _18
REMARK    8  A    between atoms: _17  and  _20
REMARK    9  A    between atoms: _20  and  _21
REMARK   10  A    between atoms: _26  and  _28
REMARK   11  A    between atoms: _28  and  _29
REMARK   12  A    between atoms: _28  and  _31
REMARK   13  A    between atoms: _31  and  _32
REMARK   14  A    between atoms: _36  and  NI_308
REMARK   15  A    between atoms: _37  and  _39
REMARK   16  A    between atoms: _39  and  _40
REMARK   17  A    between atoms: _39  and  _42
REMARK   18  A    between atoms: _42  and  _43
REMARK   19  A    between atoms: _46  and  _48
REMARK   20  A    between atoms: _48  and  _49
REMARK   21  A    between atoms: _48  and  _51
REMARK   22  A    between atoms: _51  and  _52
REMARK   23  A    between atoms: _55  and  _57
REMARK   24  A    between atoms: _57  and  _58
REMARK   25  A    between atoms: _61  and  _63
REMARK   26  A    between atoms: _63  and  _64
REMARK   27  A    between atoms: _63  and  _66
REMARK   28  A    between atoms: _68  and  _70
REMARK   29  A    between atoms: _70  and  _71
REMARK   30  A    between atoms: _70  and  _73
REMARK   31  A    between atoms: _73  and  _74
REMARK   32  A    between atoms: _74  and  _76
REMARK   33  A    between atoms: _76  and  NI_308
REMARK   34  A    between atoms: _77  and  _79
REMARK   35  A    between atoms: _79  and  _80
REMARK   36  A    between atoms: _79  and  _82
REMARK   37  A    between atoms: _82  and  _83
REMARK   38  A    between atoms: _86  and  _88
REMARK   39  A    between atoms: _88  and  _89
REMARK   40  A    between atoms: _88  and  _91
REMARK   41  A    between atoms: _93  and  _95
REMARK   42  A    between atoms: _95  and  _96
REMARK   43  A    between atoms: _95  and  _98
REMARK   44  A    between atoms: _98  and  _99
REMARK   45  A    between atoms: _101  and  _103
REMARK   46  A    between atoms: _103  and  _104
REMARK   47  A    between atoms: _103  and  _106
REMARK   48  A    between atoms: _109  and  _111
REMARK   49  A    between atoms: _111  and  _112
REMARK   50  A    between atoms: _111  and  _114
REMARK   51  A    between atoms: _114  and  _115
REMARK   52  A    between atoms: _118  and  _120
REMARK   53  A    between atoms: _120  and  _121
REMARK   54  A    between atoms: _120  and  _123
REMARK   55  A    between atoms: _123  and  _124
REMARK   56  A    between atoms: _124  and  _125
REMARK   57  A    between atoms: _125  and  _126
REMARK   58  A    between atoms: _126  and  _127
REMARK   59  A    between atoms: _131  and  _133
REMARK   60  A    between atoms: _133  and  _134
REMARK   61  A    between atoms: _133  and  _136
REMARK   62  A    between atoms: _136  and  _137
REMARK   63  A    between atoms: _140  and  _142
REMARK   64  A    between atoms: _142  and  _143
REMARK   65  A    between atoms: _142  and  _145
REMARK   66  A    between atoms: _145  and  _146
REMARK   67  A    between atoms: _149  and  _151
REMARK   68  A    between atoms: _151  and  _152
REMARK   69  A    between atoms: _155  and  _157
REMARK   70  A    between atoms: _157  and  _158
REMARK   71  A    between atoms: _157  and  _160
REMARK   72  A    between atoms: _160  and  _161
REMARK   73  A    between atoms: _164  and  _166
REMARK   74  A    between atoms: _166  and  _167
REMARK   75  A    between atoms: _166  and  _169
REMARK   76  A    between atoms: _169  and  _170
REMARK   77  A    between atoms: _175  and  _176
REMARK   78  A    between atoms: _178  and  _180
REMARK   79  A    between atoms: _180  and  _181
REMARK   80  A    between atoms: _180  and  _183
REMARK   81  A    between atoms: _183  and  _184
REMARK   82  A    between atoms: _190  and  _192
REMARK   83  A    between atoms: _192  and  _193
REMARK   84  A    between atoms: _192  and  _195
REMARK   85  A    between atoms: _195  and  _196
REMARK   86  A    between atoms: _196  and  _197
REMARK   87  A    between atoms: _199  and  _201
REMARK   88  A    between atoms: _201  and  _202
REMARK   89  A    between atoms: _201  and  _204
REMARK   90  A    between atoms: _207  and  _209
REMARK   91  A    between atoms: _209  and  _210
REMARK   92  A    between atoms: _212  and  _214
REMARK   93  A    between atoms: _214  and  _215
REMARK   94  A    between atoms: _214  and  _217
REMARK   95  A    between atoms: _217  and  _218
REMARK   96  A    between atoms: _218  and  _219
REMARK   97  A    between atoms: _224  and  _226
REMARK   98  A    between atoms: _226  and  _227
REMARK   99  A    between atoms: _226  and  _229
REMARK  100  A    between atoms: _229  and  _230
REMARK  101  A    between atoms: _233  and  _235
REMARK  102  A    between atoms: _235  and  _236
REMARK  103  A    between atoms: _238  and  _240
REMARK  104  A    between atoms: _240  and  _241
REMARK  105  A    between atoms: _240  and  _243
REMARK  106  A    between atoms: _243  and  _244
REMARK  107  A    between atoms: _250  and  _252
REMARK  108  A    between atoms: _252  and  _253
REMARK  109  A    between atoms: _252  and  _255
REMARK  110  A    between atoms: _255  and  _256
REMARK  111  A    between atoms: _261  and  _262
REMARK  112  A    between atoms: _264  and  _266
REMARK  113  A    between atoms: _266  and  _267
REMARK  114  A    between atoms: _266  and  _269
REMARK  115  A    between atoms: _272  and  _274
REMARK  116  A    between atoms: _274  and  _275
REMARK  117  A    between atoms: _278  and  _280
REMARK  118  A    between atoms: _280  and  _281
REMARK  119  A    between atoms: _280  and  _283
REMARK  120  A    between atoms: _283  and  _284
REMARK  121  A    between atoms: _289  and  _290
REMARK  122  A    between atoms: _292  and  _294
REMARK  123  A    between atoms: _294  and  _295
REMARK  124  A    between atoms: _294  and  _297
REMARK  125  A    between atoms: _297  and  _298
REMARK                            x       y       z     vdW  Elec       q    Type
REMARK                         _______ _______ _______ _____ _____    ______ ____
ROOT
ATOM      1  O   HOH     1       1.768 -23.267 -30.722  0.00  0.00    +0.000 OA
ENDROOT
TORSDOF 0
REMARK  Name = ../refined-set-2016/4mrw/4mrw_pocket.pdb
REMARK  125 active torsions:
REMARK  status: ('A' for Active; 'I' for Inactive)
REMARK    1  A    between atoms: _1  and  _3
REMARK    2  A    between atoms: _3  and  _4
REMARK    3  A    between atoms: _3  and  _6
REMARK    4  A    between atoms: _6  and  _7
REMARK    5  A    between atoms: _12  and  _13
REMARK    6  A    between atoms: _15  and  _17
REMARK    7  A    between atoms: _17  and  _18
REMARK    8  A    between atoms: _17  and  _20
REMARK    9  A    between atoms: _20  and  _21
REMARK   10  A    between atoms: _26  and  _28
REMARK   11  A    between atoms: _28  and  _29
REMARK   12  A    between atoms: _28  and  _31
REMARK   13  A    between atoms: _31  and  _32
REMARK   14  A    between atoms: _36  and  NI_308
REMARK   15  A    between atoms: _37  and  _39
REMARK   16  A    between atoms: _39  and  _40
REMARK   17  A    between atoms: _39  and  _42
REMARK   18  A    between atoms: _42  and  _43
REMARK   19  A    between atoms: _46  and  _48
REMARK   20  A    between atoms: _48  and  _49
REMARK   21  A    between atoms: _48  and  _51
REMARK   22  A    between atoms: _51  and  _52
REMARK   23  A    between atoms: _55  and  _57
REMARK   24  A    between atoms: _57  and  _58
REMARK   25  A    between atoms: _61  and  _63
REMARK   26  A    between atoms: _63  and  _64
REMARK   27  A    between atoms: _63  and  _66
REMARK   28  A    between atoms: _68  and  _70
REMARK   29  A    between atoms: _70  and  _71
REMARK   30  A    between atoms: _70  and  _73
REMARK   31  A    between atoms: _73  and  _74
REMARK   32  A    between atoms: _74  and  _76
REMARK   33  A    between atoms: _76  and  NI_308
REMARK   34  A    between atoms: _77  and  _79
REMARK   35  A    between atoms: _79  and  _80
REMARK   36  A    between atoms: _79  and  _82
REMARK   37  A    between atoms: _82  and  _83
REMARK   38  A    between atoms: _86  and  _88
REMARK   39  A    between atoms: _88  and  _89
REMARK   40  A    between atoms: _88  and  _91
REMARK   41  A    between atoms: _93  and  _95
REMARK   42  A    between atoms: _95  and  _96
REMARK   43  A    between atoms: _95  and  _98
REMARK   44  A    between atoms: _98  and  _99
REMARK   45  A    between atoms: _101  and  _103
REMARK   46  A    between atoms: _103  and  _104
REMARK   47  A    between atoms: _103  and  _106
REMARK   48  A    between atoms: _109  and  _111
REMARK   49  A    between atoms: _111  and  _112
REMARK   50  A    between atoms: _111  and  _114
REMARK   51  A    between atoms: _114  and  _115
REMARK   52  A    between atoms: _118  and  _120
REMARK   53  A    between atoms: _120  and  _121
REMARK   54  A    between atoms: _120  and  _123
REMARK   55  A    between atoms: _123  and  _124
REMARK   56  A    between atoms: _124  and  _125
REMARK   57  A    between atoms: _125  and  _126
REMARK   58  A    between atoms: _126  and  _127
REMARK   59  A    between atoms: _131  and  _133
REMARK   60  A    between atoms: _133  and  _134
REMARK   61  A    between atoms: _133  and  _136
REMARK   62  A    between atoms: _136  and  _137
REMARK   63  A    between atoms: _140  and  _142
REMARK   64  A    between atoms: _142  and  _143
REMARK   65  A    between atoms: _142  and  _145
REMARK   66  A    between atoms: _145  and  _146
REMARK   67  A    between atoms: _149  and  _151
REMARK   68  A    between atoms: _151  and  _152
REMARK   69  A    between atoms: _155  and  _157
REMARK   70  A    between atoms: _157  and  _158
REMARK   71  A    between atoms: _157  and  _160
REMARK   72  A    between atoms: _160  and  _161
REMARK   73  A    between atoms: _164  and  _166
REMARK   74  A    between atoms: _166  and  _167
REMARK   75  A    between atoms: _166  and  _169
REMARK   76  A    between atoms: _169  and  _170
REMARK   77  A    between atoms: _175  and  _176
REMARK   78  A    between atoms: _178  and  _180
REMARK   79  A    between atoms: _180  and  _181
REMARK   80  A    between atoms: _180  and  _183
REMARK   81  A    between atoms: _183  and  _184
REMARK   82  A    between atoms: _190  and  _192
REMARK   83  A    between atoms: _192  and  _193
REMARK   84  A    between atoms: _192  and  _195
REMARK   85  A    between atoms: _195  and  _196
REMARK   86  A    between atoms: _196  and  _197
REMARK   87  A    between atoms: _199  and  _201
REMARK   88  A    between atoms: _201  and  _202
REMARK   89  A    between atoms: _201  and  _204
REMARK   90  A    between atoms: _207  and  _209
REMARK   91  A    between atoms: _209  and  _210
REMARK   92  A    between atoms: _212  and  _214
REMARK   93  A    between atoms: _214  and  _215
REMARK   94  A    between atoms: _214  and  _217
REMARK   95  A    between atoms: _217  and  _218
REMARK   96  A    between atoms: _218  and  _219
REMARK   97  A    between atoms: _224  and  _226
REMARK   98  A    between atoms: _226  and  _227
REMARK   99  A    between atoms: _226  and  _229
REMARK  100  A    between atoms: _229  and  _230
REMARK  101  A    between atoms: _233  and  _235
REMARK  102  A    between atoms: _235  and  _236
REMARK  103  A    between atoms: _238  and  _240
REMARK  104  A    between atoms: _240  and  _241
REMARK  105  A    between atoms: _240  and  _243
REMARK  106  A    between atoms: _243  and  _244
REMARK  107  A    between atoms: _250  and  _252
REMARK  108  A    between atoms: _252  and  _253
REMARK  109  A    between atoms: _252  and  _255
REMARK  110  A    between atoms: _255  and  _256
REMARK  111  A    between atoms: _261  and  _262
REMARK  112  A    between atoms: _264  and  _266
REMARK  113  A    between atoms: _266  and  _267
REMARK  114  A    between atoms: _266  and  _269
REMARK  115  A    between atoms: _272  and  _274
REMARK  116  A    between atoms: _274  and  _275
REMARK  117  A    between atoms: _278  and  _280
REMARK  118  A    between atoms: _280  and  _281
REMARK  119  A    between atoms: _280  and  _283
REMARK  120  A    between atoms: _283  and  _284
REMARK  121  A    between atoms: _289  and  _290
REMARK  122  A    between atoms: _292  and  _294
REMARK  123  A    between atoms: _294  and  _295
REMARK  124  A    between atoms: _294  and  _297
REMARK  125  A    between atoms: _297  and  _298
REMARK                            x       y       z     vdW  Elec       q    Type
REMARK                         _______ _______ _______ _____ _____    ______ ____
ROOT
ATOM      1  O   HOH     1       4.321 -23.832 -29.483  0.00  0.00    +0.000 OA
ENDROOT
TORSDOF 0
REMARK  Name = ../refined-set-2016/4mrw/4mrw_pocket.pdb
REMARK  125 active torsions:
REMARK  status: ('A' for Active; 'I' for Inactive)
REMARK    1  A    between atoms: _1  and  _3
REMARK    2  A    between atoms: _3  and  _4
REMARK    3  A    between atoms: _3  and  _6
REMARK    4  A    between atoms: _6  and  _7
REMARK    5  A    between atoms: _12  and  _13
REMARK    6  A    between atoms: _15  and  _17
REMARK    7  A    between atoms: _17  and  _18
REMARK    8  A    between atoms: _17  and  _20
REMARK    9  A    between atoms: _20  and  _21
REMARK   10  A    between atoms: _26  and  _28
REMARK   11  A    between atoms: _28  and  _29
REMARK   12  A    between atoms: _28  and  _31
REMARK   13  A    between atoms: _31  and  _32
REMARK   14  A    between atoms: _36  and  NI_308
REMARK   15  A    between atoms: _37  and  _39
REMARK   16  A    between atoms: _39  and  _40
REMARK   17  A    between atoms: _39  and  _42
REMARK   18  A    between atoms: _42  and  _43
REMARK   19  A    between atoms: _46  and  _48
REMARK   20  A    between atoms: _48  and  _49
REMARK   21  A    between atoms: _48  and  _51
REMARK   22  A    between atoms: _51  and  _52
REMARK   23  A    between atoms: _55  and  _57
REMARK   24  A    between atoms: _57  and  _58
REMARK   25  A    between atoms: _61  and  _63
REMARK   26  A    between atoms: _63  and  _64
REMARK   27  A    between atoms: _63  and  _66
REMARK   28  A    between atoms: _68  and  _70
REMARK   29  A    between atoms: _70  and  _71
REMARK   30  A    between atoms: _70  and  _73
REMARK   31  A    between atoms: _73  and  _74
REMARK   32  A    between atoms: _74  and  _76
REMARK   33  A    between atoms: _76  and  NI_308
REMARK   34  A    between atoms: _77  and  _79
REMARK   35  A    between atoms: _79  and  _80
REMARK   36  A    between atoms: _79  and  _82
REMARK   37  A    between atoms: _82  and  _83
REMARK   38  A    between atoms: _86  and  _88
REMARK   39  A    between atoms: _88  and  _89
REMARK   40  A    between atoms: _88  and  _91
REMARK   41  A    between atoms: _93  and  _95
REMARK   42  A    between atoms: _95  and  _96
REMARK   43  A    between atoms: _95  and  _98
REMARK   44  A    between atoms: _98  and  _99
REMARK   45  A    between atoms: _101  and  _103
REMARK   46  A    between atoms: _103  and  _104
REMARK   47  A    between atoms: _103  and  _106
REMARK   48  A    between atoms: _109  and  _111
REMARK   49  A    between atoms: _111  and  _112
REMARK   50  A    between atoms: _111  and  _114
REMARK   51  A    between atoms: _114  and  _115
REMARK   52  A    between atoms: _118  and  _120
REMARK   53  A    between atoms: _120  and  _121
REMARK   54  A    between atoms: _120  and  _123
REMARK   55  A    between atoms: _123  and  _124
REMARK   56  A    between atoms: _124  and  _125
REMARK   57  A    between atoms: _125  and  _126
REMARK   58  A    between atoms: _126  and  _127
REMARK   59  A    between atoms: _131  and  _133
REMARK   60  A    between atoms: _133  and  _134
REMARK   61  A    between atoms: _133  and  _136
REMARK   62  A    between atoms: _136  and  _137
REMARK   63  A    between atoms: _140  and  _142
REMARK   64  A    between atoms: _142  and  _143
REMARK   65  A    between atoms: _142  and  _145
REMARK   66  A    between atoms: _145  and  _146
REMARK   67  A    between atoms: _149  and  _151
REMARK   68  A    between atoms: _151  and  _152
REMARK   69  A    between atoms: _155  and  _157
REMARK   70  A    between atoms: _157  and  _158
REMARK   71  A    between atoms: _157  and  _160
REMARK   72  A    between atoms: _160  and  _161
REMARK   73  A    between atoms: _164  and  _166
REMARK   74  A    between atoms: _166  and  _167
REMARK   75  A    between atoms: _166  and  _169
REMARK   76  A    between atoms: _169  and  _170
REMARK   77  A    between atoms: _175  and  _176
REMARK   78  A    between atoms: _178  and  _180
REMARK   79  A    between atoms: _180  and  _181
REMARK   80  A    between atoms: _180  and  _183
REMARK   81  A    between atoms: _183  and  _184
REMARK   82  A    between atoms: _190  and  _192
REMARK   83  A    between atoms: _192  and  _193
REMARK   84  A    between atoms: _192  and  _195
REMARK   85  A    between atoms: _195  and  _196
REMARK   86  A    between atoms: _196  and  _197
REMARK   87  A    between atoms: _199  and  _201
REMARK   88  A    between atoms: _201  and  _202
REMARK   89  A    between atoms: _201  and  _204
REMARK   90  A    between atoms: _207  and  _209
REMARK   91  A    between atoms: _209  and  _210
REMARK   92  A    between atoms: _212  and  _214
REMARK   93  A    between atoms: _214  and  _215
REMARK   94  A    between atoms: _214  and  _217
REMARK   95  A    between atoms: _217  and  _218
REMARK   96  A    between atoms: _218  and  _219
REMARK   97  A    between atoms: _224  and  _226
REMARK   98  A    between atoms: _226  and  _227
REMARK   99  A    between atoms: _226  and  _229
REMARK  100  A    between atoms: _229  and  _230
REMARK  101  A    between atoms: _233  and  _235
REMARK  102  A    between atoms: _235  and  _236
REMARK  103  A    between atoms: _238  and  _240
REMARK  104  A    between atoms: _240  and  _241
REMARK  105  A    between atoms: _240  and  _243
REMARK  106  A    between atoms: _243  and  _244
REMARK  107  A    between atoms: _250  and  _252
REMARK  108  A    between atoms: _252  and  _253
REMARK  109  A    between atoms: _252  and  _255
REMARK  110  A    between atoms: _255  and  _256
REMARK  111  A    between atoms: _261  and  _262
REMARK  112  A    between atoms: _264  and  _266
REMARK  113  A    between atoms: _266  and  _267
REMARK  114  A    between atoms: _266  and  _269
REMARK  115  A    between atoms: _272  and  _274
REMARK  116  A    between atoms: _274  and  _275
REMARK  117  A    between atoms: _278  and  _280
REMARK  118  A    between atoms: _280  and  _281
REMARK  119  A    between atoms: _280  and  _283
REMARK  120  A    between atoms: _283  and  _284
REMARK  121  A    between atoms: _289  and  _290
REMARK  122  A    between atoms: _292  and  _294
REMARK  123  A    between atoms: _294  and  _295
REMARK  124  A    between atoms: _294  and  _297
REMARK  125  A    between atoms: _297  and  _298
REMARK                            x       y       z     vdW  Elec       q    Type
REMARK                         _______ _______ _______ _____ _____    ______ ____
ROOT
ATOM      1  O   HOH     1       8.463 -29.167 -25.908  0.00  0.00    +0.000 OA
ENDROOT
TORSDOF 0
REMARK  Name = ../refined-set-2016/4mrw/4mrw_pocket.pdb
REMARK  125 active torsions:
REMARK  status: ('A' for Active; 'I' for Inactive)
REMARK    1  A    between atoms: _1  and  _3
REMARK    2  A    between atoms: _3  and  _4
REMARK    3  A    between atoms: _3  and  _6
REMARK    4  A    between atoms: _6  and  _7
REMARK    5  A    between atoms: _12  and  _13
REMARK    6  A    between atoms: _15  and  _17
REMARK    7  A    between atoms: _17  and  _18
REMARK    8  A    between atoms: _17  and  _20
REMARK    9  A    between atoms: _20  and  _21
REMARK   10  A    between atoms: _26  and  _28
REMARK   11  A    between atoms: _28  and  _29
REMARK   12  A    between atoms: _28  and  _31
REMARK   13  A    between atoms: _31  and  _32
REMARK   14  A    between atoms: _36  and  NI_308
REMARK   15  A    between atoms: _37  and  _39
REMARK   16  A    between atoms: _39  and  _40
REMARK   17  A    between atoms: _39  and  _42
REMARK   18  A    between atoms: _42  and  _43
REMARK   19  A    between atoms: _46  and  _48
REMARK   20  A    between atoms: _48  and  _49
REMARK   21  A    between atoms: _48  and  _51
REMARK   22  A    between atoms: _51  and  _52
REMARK   23  A    between atoms: _55  and  _57
REMARK   24  A    between atoms: _57  and  _58
REMARK   25  A    between atoms: _61  and  _63
REMARK   26  A    between atoms: _63  and  _64
REMARK   27  A    between atoms: _63  and  _66
REMARK   28  A    between atoms: _68  and  _70
REMARK   29  A    between atoms: _70  and  _71
REMARK   30  A    between atoms: _70  and  _73
REMARK   31  A    between atoms: _73  and  _74
REMARK   32  A    between atoms: _74  and  _76
REMARK   33  A    between atoms: _76  and  NI_308
REMARK   34  A    between atoms: _77  and  _79
REMARK   35  A    between atoms: _79  and  _80
REMARK   36  A    between atoms: _79  and  _82
REMARK   37  A    between atoms: _82  and  _83
REMARK   38  A    between atoms: _86  and  _88
REMARK   39  A    between atoms: _88  and  _89
REMARK   40  A    between atoms: _88  and  _91
REMARK   41  A    between atoms: _93  and  _95
REMARK   42  A    between atoms: _95  and  _96
REMARK   43  A    between atoms: _95  and  _98
REMARK   44  A    between atoms: _98  and  _99
REMARK   45  A    between atoms: _101  and  _103
REMARK   46  A    between atoms: _103  and  _104
REMARK   47  A    between atoms: _103  and  _106
REMARK   48  A    between atoms: _109  and  _111
REMARK   49  A    between atoms: _111  and  _112
REMARK   50  A    between atoms: _111  and  _114
REMARK   51  A    between atoms: _114  and  _115
REMARK   52  A    between atoms: _118  and  _120
REMARK   53  A    between atoms: _120  and  _121
REMARK   54  A    between atoms: _120  and  _123
REMARK   55  A    between atoms: _123  and  _124
REMARK   56  A    between atoms: _124  and  _125
REMARK   57  A    between atoms: _125  and  _126
REMARK   58  A    between atoms: _126  and  _127
REMARK   59  A    between atoms: _131  and  _133
REMARK   60  A    between atoms: _133  and  _134
REMARK   61  A    between atoms: _133  and  _136
REMARK   62  A    between atoms: _136  and  _137
REMARK   63  A    between atoms: _140  and  _142
REMARK   64  A    between atoms: _142  and  _143
REMARK   65  A    between atoms: _142  and  _145
REMARK   66  A    between atoms: _145  and  _146
REMARK   67  A    between atoms: _149  and  _151
REMARK   68  A    between atoms: _151  and  _152
REMARK   69  A    between atoms: _155  and  _157
REMARK   70  A    between atoms: _157  and  _158
REMARK   71  A    between atoms: _157  and  _160
REMARK   72  A    between atoms: _160  and  _161
REMARK   73  A    between atoms: _164  and  _166
REMARK   74  A    between atoms: _166  and  _167
REMARK   75  A    between atoms: _166  and  _169
REMARK   76  A    between atoms: _169  and  _170
REMARK   77  A    between atoms: _175  and  _176
REMARK   78  A    between atoms: _178  and  _180
REMARK   79  A    between atoms: _180  and  _181
REMARK   80  A    between atoms: _180  and  _183
REMARK   81  A    between atoms: _183  and  _184
REMARK   82  A    between atoms: _190  and  _192
REMARK   83  A    between atoms: _192  and  _193
REMARK   84  A    between atoms: _192  and  _195
REMARK   85  A    between atoms: _195  and  _196
REMARK   86  A    between atoms: _196  and  _197
REMARK   87  A    between atoms: _199  and  _201
REMARK   88  A    between atoms: _201  and  _202
REMARK   89  A    between atoms: _201  and  _204
REMARK   90  A    between atoms: _207  and  _209
REMARK   91  A    between atoms: _209  and  _210
REMARK   92  A    between atoms: _212  and  _214
REMARK   93  A    between atoms: _214  and  _215
REMARK   94  A    between atoms: _214  and  _217
REMARK   95  A    between atoms: _217  and  _218
REMARK   96  A    between atoms: _218  and  _219
REMARK   97  A    between atoms: _224  and  _226
REMARK   98  A    between atoms: _226  and  _227
REMARK   99  A    between atoms: _226  and  _229
REMARK  100  A    between atoms: _229  and  _230
REMARK  101  A    between atoms: _233  and  _235
REMARK  102  A    between atoms: _235  and  _236
REMARK  103  A    between atoms: _238  and  _240
REMARK  104  A    between atoms: _240  and  _241
REMARK  105  A    between atoms: _240  and  _243
REMARK  106  A    between atoms: _243  and  _244
REMARK  107  A    between atoms: _250  and  _252
REMARK  108  A    between atoms: _252  and  _253
REMARK  109  A    between atoms: _252  and  _255
REMARK  110  A    between atoms: _255  and  _256
REMARK  111  A    between atoms: _261  and  _262
REMARK  112  A    between atoms: _264  and  _266
REMARK  113  A    between atoms: _266  and  _267
REMARK  114  A    between atoms: _266  and  _269
REMARK  115  A    between atoms: _272  and  _274
REMARK  116  A    between atoms: _274  and  _275
REMARK  117  A    between atoms: _278  and  _280
REMARK  118  A    between atoms: _280  and  _281
REMARK  119  A    between atoms: _280  and  _283
REMARK  120  A    between atoms: _283  and  _284
REMARK  121  A    between atoms: _289  and  _290
REMARK  122  A    between atoms: _292  and  _294
REMARK  123  A    between atoms: _294  and  _295
REMARK  124  A    between atoms: _294  and  _297
REMARK  125  A    between atoms: _297  and  _298
REMARK                            x       y       z     vdW  Elec       q    Type
REMARK                         _______ _______ _______ _____ _____    ______ ____
ROOT
ATOM      1  O   HOH     1       3.844 -21.780 -41.165  0.00  0.00    +0.000 OA
ENDROOT
TORSDOF 0
REMARK  Name = ../refined-set-2016/4mrw/4mrw_pocket.pdb
REMARK  125 active torsions:
REMARK  status: ('A' for Active; 'I' for Inactive)
REMARK    1  A    between atoms: _1  and  _3
REMARK    2  A    between atoms: _3  and  _4
REMARK    3  A    between atoms: _3  and  _6
REMARK    4  A    between atoms: _6  and  _7
REMARK    5  A    between atoms: _12  and  _13
REMARK    6  A    between atoms: _15  and  _17
REMARK    7  A    between atoms: _17  and  _18
REMARK    8  A    between atoms: _17  and  _20
REMARK    9  A    between atoms: _20  and  _21
REMARK   10  A    between atoms: _26  and  _28
REMARK   11  A    between atoms: _28  and  _29
REMARK   12  A    between atoms: _28  and  _31
REMARK   13  A    between atoms: _31  and  _32
REMARK   14  A    between atoms: _36  and  NI_308
REMARK   15  A    between atoms: _37  and  _39
REMARK   16  A    between atoms: _39  and  _40
REMARK   17  A    between atoms: _39  and  _42
REMARK   18  A    between atoms: _42  and  _43
REMARK   19  A    between atoms: _46  and  _48
REMARK   20  A    between atoms: _48  and  _49
REMARK   21  A    between atoms: _48  and  _51
REMARK   22  A    between atoms: _51  and  _52
REMARK   23  A    between atoms: _55  and  _57
REMARK   24  A    between atoms: _57  and  _58
REMARK   25  A    between atoms: _61  and  _63
REMARK   26  A    between atoms: _63  and  _64
REMARK   27  A    between atoms: _63  and  _66
REMARK   28  A    between atoms: _68  and  _70
REMARK   29  A    between atoms: _70  and  _71
REMARK   30  A    between atoms: _70  and  _73
REMARK   31  A    between atoms: _73  and  _74
REMARK   32  A    between atoms: _74  and  _76
REMARK   33  A    between atoms: _76  and  NI_308
REMARK   34  A    between atoms: _77  and  _79
REMARK   35  A    between atoms: _79  and  _80
REMARK   36  A    between atoms: _79  and  _82
REMARK   37  A    between atoms: _82  and  _83
REMARK   38  A    between atoms: _86  and  _88
REMARK   39  A    between atoms: _88  and  _89
REMARK   40  A    between atoms: _88  and  _91
REMARK   41  A    between atoms: _93  and  _95
REMARK   42  A    between atoms: _95  and  _96
REMARK   43  A    between atoms: _95  and  _98
REMARK   44  A    between atoms: _98  and  _99
REMARK   45  A    between atoms: _101  and  _103
REMARK   46  A    between atoms: _103  and  _104
REMARK   47  A    between atoms: _103  and  _106
REMARK   48  A    between atoms: _109  and  _111
REMARK   49  A    between atoms: _111  and  _112
REMARK   50  A    between atoms: _111  and  _114
REMARK   51  A    between atoms: _114  and  _115
REMARK   52  A    between atoms: _118  and  _120
REMARK   53  A    between atoms: _120  and  _121
REMARK   54  A    between atoms: _120  and  _123
REMARK   55  A    between atoms: _123  and  _124
REMARK   56  A    between atoms: _124  and  _125
REMARK   57  A    between atoms: _125  and  _126
REMARK   58  A    between atoms: _126  and  _127
REMARK   59  A    between atoms: _131  and  _133
REMARK   60  A    between atoms: _133  and  _134
REMARK   61  A    between atoms: _133  and  _136
REMARK   62  A    between atoms: _136  and  _137
REMARK   63  A    between atoms: _140  and  _142
REMARK   64  A    between atoms: _142  and  _143
REMARK   65  A    between atoms: _142  and  _145
REMARK   66  A    between atoms: _145  and  _146
REMARK   67  A    between atoms: _149  and  _151
REMARK   68  A    between atoms: _151  and  _152
REMARK   69  A    between atoms: _155  and  _157
REMARK   70  A    between atoms: _157  and  _158
REMARK   71  A    between atoms: _157  and  _160
REMARK   72  A    between atoms: _160  and  _161
REMARK   73  A    between atoms: _164  and  _166
REMARK   74  A    between atoms: _166  and  _167
REMARK   75  A    between atoms: _166  and  _169
REMARK   76  A    between atoms: _169  and  _170
REMARK   77  A    between atoms: _175  and  _176
REMARK   78  A    between atoms: _178  and  _180
REMARK   79  A    between atoms: _180  and  _181
REMARK   80  A    between atoms: _180  and  _183
REMARK   81  A    between atoms: _183  and  _184
REMARK   82  A    between atoms: _190  and  _192
REMARK   83  A    between atoms: _192  and  _193
REMARK   84  A    between atoms: _192  and  _195
REMARK   85  A    between atoms: _195  and  _196
REMARK   86  A    between atoms: _196  and  _197
REMARK   87  A    between atoms: _199  and  _201
REMARK   88  A    between atoms: _201  and  _202
REMARK   89  A    between atoms: _201  and  _204
REMARK   90  A    between atoms: _207  and  _209
REMARK   91  A    between atoms: _209  and  _210
REMARK   92  A    between atoms: _212  and  _214
REMARK   93  A    between atoms: _214  and  _215
REMARK   94  A    between atoms: _214  and  _217
REMARK   95  A    between atoms: _217  and  _218
REMARK   96  A    between atoms: _218  and  _219
REMARK   97  A    between atoms: _224  and  _226
REMARK   98  A    between atoms: _226  and  _227
REMARK   99  A    between atoms: _226  and  _229
REMARK  100  A    between atoms: _229  and  _230
REMARK  101  A    between atoms: _233  and  _235
REMARK  102  A    between atoms: _235  and  _236
REMARK  103  A    between atoms: _238  and  _240
REMARK  104  A    between atoms: _240  and  _241
REMARK  105  A    between atoms: _240  and  _243
REMARK  106  A    between atoms: _243  and  _244
REMARK  107  A    between atoms: _250  and  _252
REMARK  108  A    between atoms: _252  and  _253
REMARK  109  A    between atoms: _252  and  _255
REMARK  110  A    between atoms: _255  and  _256
REMARK  111  A    between atoms: _261  and  _262
REMARK  112  A    between atoms: _264  and  _266
REMARK  113  A    between atoms: _266  and  _267
REMARK  114  A    between atoms: _266  and  _269
REMARK  115  A    between atoms: _272  and  _274
REMARK  116  A    between atoms: _274  and  _275
REMARK  117  A    between atoms: _278  and  _280
REMARK  118  A    between atoms: _280  and  _281
REMARK  119  A    between atoms: _280  and  _283
REMARK  120  A    between atoms: _283  and  _284
REMARK  121  A    between atoms: _289  and  _290
REMARK  122  A    between atoms: _292  and  _294
REMARK  123  A    between atoms: _294  and  _295
REMARK  124  A    between atoms: _294  and  _297
REMARK  125  A    between atoms: _297  and  _298
REMARK                            x       y       z     vdW  Elec       q    Type
REMARK                         _______ _______ _______ _____ _____    ______ ____
ROOT
ATOM      1  O   HOH     1       6.832 -36.119 -35.942  0.00  0.00    +0.000 OA
ENDROOT
TORSDOF 0
REMARK  Name = ../refined-set-2016/4mrw/4mrw_pocket.pdb
REMARK  125 active torsions:
REMARK  status: ('A' for Active; 'I' for Inactive)
REMARK    1  A    between atoms: _1  and  _3
REMARK    2  A    between atoms: _3  and  _4
REMARK    3  A    between atoms: _3  and  _6
REMARK    4  A    between atoms: _6  and  _7
REMARK    5  A    between atoms: _12  and  _13
REMARK    6  A    between atoms: _15  and  _17
REMARK    7  A    between atoms: _17  and  _18
REMARK    8  A    between atoms: _17  and  _20
REMARK    9  A    between atoms: _20  and  _21
REMARK   10  A    between atoms: _26  and  _28
REMARK   11  A    between atoms: _28  and  _29
REMARK   12  A    between atoms: _28  and  _31
REMARK   13  A    between atoms: _31  and  _32
REMARK   14  A    between atoms: _36  and  NI_308
REMARK   15  A    between atoms: _37  and  _39
REMARK   16  A    between atoms: _39  and  _40
REMARK   17  A    between atoms: _39  and  _42
REMARK   18  A    between atoms: _42  and  _43
REMARK   19  A    between atoms: _46  and  _48
REMARK   20  A    between atoms: _48  and  _49
REMARK   21  A    between atoms: _48  and  _51
REMARK   22  A    between atoms: _51  and  _52
REMARK   23  A    between atoms: _55  and  _57
REMARK   24  A    between atoms: _57  and  _58
REMARK   25  A    between atoms: _61  and  _63
REMARK   26  A    between atoms: _63  and  _64
REMARK   27  A    between atoms: _63  and  _66
REMARK   28  A    between atoms: _68  and  _70
REMARK   29  A    between atoms: _70  and  _71
REMARK   30  A    between atoms: _70  and  _73
REMARK   31  A    between atoms: _73  and  _74
REMARK   32  A    between atoms: _74  and  _76
REMARK   33  A    between atoms: _76  and  NI_308
REMARK   34  A    between atoms: _77  and  _79
REMARK   35  A    between atoms: _79  and  _80
REMARK   36  A    between atoms: _79  and  _82
REMARK   37  A    between atoms: _82  and  _83
REMARK   38  A    between atoms: _86  and  _88
REMARK   39  A    between atoms: _88  and  _89
REMARK   40  A    between atoms: _88  and  _91
REMARK   41  A    between atoms: _93  and  _95
REMARK   42  A    between atoms: _95  and  _96
REMARK   43  A    between atoms: _95  and  _98
REMARK   44  A    between atoms: _98  and  _99
REMARK   45  A    between atoms: _101  and  _103
REMARK   46  A    between atoms: _103  and  _104
REMARK   47  A    between atoms: _103  and  _106
REMARK   48  A    between atoms: _109  and  _111
REMARK   49  A    between atoms: _111  and  _112
REMARK   50  A    between atoms: _111  and  _114
REMARK   51  A    between atoms: _114  and  _115
REMARK   52  A    between atoms: _118  and  _120
REMARK   53  A    between atoms: _120  and  _121
REMARK   54  A    between atoms: _120  and  _123
REMARK   55  A    between atoms: _123  and  _124
REMARK   56  A    between atoms: _124  and  _125
REMARK   57  A    between atoms: _125  and  _126
REMARK   58  A    between atoms: _126  and  _127
REMARK   59  A    between atoms: _131  and  _133
REMARK   60  A    between atoms: _133  and  _134
REMARK   61  A    between atoms: _133  and  _136
REMARK   62  A    between atoms: _136  and  _137
REMARK   63  A    between atoms: _140  and  _142
REMARK   64  A    between atoms: _142  and  _143
REMARK   65  A    between atoms: _142  and  _145
REMARK   66  A    between atoms: _145  and  _146
REMARK   67  A    between atoms: _149  and  _151
REMARK   68  A    between atoms: _151  and  _152
REMARK   69  A    between atoms: _155  and  _157
REMARK   70  A    between atoms: _157  and  _158
REMARK   71  A    between atoms: _157  and  _160
REMARK   72  A    between atoms: _160  and  _161
REMARK   73  A    between atoms: _164  and  _166
REMARK   74  A    between atoms: _166  and  _167
REMARK   75  A    between atoms: _166  and  _169
REMARK   76  A    between atoms: _169  and  _170
REMARK   77  A    between atoms: _175  and  _176
REMARK   78  A    between atoms: _178  and  _180
REMARK   79  A    between atoms: _180  and  _181
REMARK   80  A    between atoms: _180  and  _183
REMARK   81  A    between atoms: _183  and  _184
REMARK   82  A    between atoms: _190  and  _192
REMARK   83  A    between atoms: _192  and  _193
REMARK   84  A    between atoms: _192  and  _195
REMARK   85  A    between atoms: _195  and  _196
REMARK   86  A    between atoms: _196  and  _197
REMARK   87  A    between atoms: _199  and  _201
REMARK   88  A    between atoms: _201  and  _202
REMARK   89  A    between atoms: _201  and  _204
REMARK   90  A    between atoms: _207  and  _209
REMARK   91  A    between atoms: _209  and  _210
REMARK   92  A    between atoms: _212  and  _214
REMARK   93  A    between atoms: _214  and  _215
REMARK   94  A    between atoms: _214  and  _217
REMARK   95  A    between atoms: _217  and  _218
REMARK   96  A    between atoms: _218  and  _219
REMARK   97  A    between atoms: _224  and  _226
REMARK   98  A    between atoms: _226  and  _227
REMARK   99  A    between atoms: _226  and  _229
REMARK  100  A    between atoms: _229  and  _230
REMARK  101  A    between atoms: _233  and  _235
REMARK  102  A    between atoms: _235  and  _236
REMARK  103  A    between atoms: _238  and  _240
REMARK  104  A    between atoms: _240  and  _241
REMARK  105  A    between atoms: _240  and  _243
REMARK  106  A    between atoms: _243  and  _244
REMARK  107  A    between atoms: _250  and  _252
REMARK  108  A    between atoms: _252  and  _253
REMARK  109  A    between atoms: _252  and  _255
REMARK  110  A    between atoms: _255  and  _256
REMARK  111  A    between atoms: _261  and  _262
REMARK  112  A    between atoms: _264  and  _266
REMARK  113  A    between atoms: _266  and  _267
REMARK  114  A    between atoms: _266  and  _269
REMARK  115  A    between atoms: _272  and  _274
REMARK  116  A    between atoms: _274  and  _275
REMARK  117  A    between atoms: _278  and  _280
REMARK  118  A    between atoms: _280  and  _281
REMARK  119  A    between atoms: _280  and  _283
REMARK  120  A    between atoms: _283  and  _284
REMARK  121  A    between atoms: _289  and  _290
REMARK  122  A    between atoms: _292  and  _294
REMARK  123  A    between atoms: _294  and  _295
REMARK  124  A    between atoms: _294  and  _297
REMARK  125  A    between atoms: _297  and  _298
REMARK                            x       y       z     vdW  Elec       q    Type
REMARK                         _______ _______ _______ _____ _____    ______ ____
ROOT
ATOM      1  O   HOH     1       7.073 -31.849 -30.551  0.00  0.00    +0.000 OA
ENDROOT
TORSDOF 0
REMARK  Name = ../refined-set-2016/4mrw/4mrw_pocket.pdb
REMARK  125 active torsions:
REMARK  status: ('A' for Active; 'I' for Inactive)
REMARK    1  A    between atoms: _1  and  _3
REMARK    2  A    between atoms: _3  and  _4
REMARK    3  A    between atoms: _3  and  _6
REMARK    4  A    between atoms: _6  and  _7
REMARK    5  A    between atoms: _12  and  _13
REMARK    6  A    between atoms: _15  and  _17
REMARK    7  A    between atoms: _17  and  _18
REMARK    8  A    between atoms: _17  and  _20
REMARK    9  A    between atoms: _20  and  _21
REMARK   10  A    between atoms: _26  and  _28
REMARK   11  A    between atoms: _28  and  _29
REMARK   12  A    between atoms: _28  and  _31
REMARK   13  A    between atoms: _31  and  _32
REMARK   14  A    between atoms: _36  and  NI_308
REMARK   15  A    between atoms: _37  and  _39
REMARK   16  A    between atoms: _39  and  _40
REMARK   17  A    between atoms: _39  and  _42
REMARK   18  A    between atoms: _42  and  _43
REMARK   19  A    between atoms: _46  and  _48
REMARK   20  A    between atoms: _48  and  _49
REMARK   21  A    between atoms: _48  and  _51
REMARK   22  A    between atoms: _51  and  _52
REMARK   23  A    between atoms: _55  and  _57
REMARK   24  A    between atoms: _57  and  _58
REMARK   25  A    between atoms: _61  and  _63
REMARK   26  A    between atoms: _63  and  _64
REMARK   27  A    between atoms: _63  and  _66
REMARK   28  A    between atoms: _68  and  _70
REMARK   29  A    between atoms: _70  and  _71
REMARK   30  A    between atoms: _70  and  _73
REMARK   31  A    between atoms: _73  and  _74
REMARK   32  A    between atoms: _74  and  _76
REMARK   33  A    between atoms: _76  and  NI_308
REMARK   34  A    between atoms: _77  and  _79
REMARK   35  A    between atoms: _79  and  _80
REMARK   36  A    between atoms: _79  and  _82
REMARK   37  A    between atoms: _82  and  _83
REMARK   38  A    between atoms: _86  and  _88
REMARK   39  A    between atoms: _88  and  _89
REMARK   40  A    between atoms: _88  and  _91
REMARK   41  A    between atoms: _93  and  _95
REMARK   42  A    between atoms: _95  and  _96
REMARK   43  A    between atoms: _95  and  _98
REMARK   44  A    between atoms: _98  and  _99
REMARK   45  A    between atoms: _101  and  _103
REMARK   46  A    between atoms: _103  and  _104
REMARK   47  A    between atoms: _103  and  _106
REMARK   48  A    between atoms: _109  and  _111
REMARK   49  A    between atoms: _111  and  _112
REMARK   50  A    between atoms: _111  and  _114
REMARK   51  A    between atoms: _114  and  _115
REMARK   52  A    between atoms: _118  and  _120
REMARK   53  A    between atoms: _120  and  _121
REMARK   54  A    between atoms: _120  and  _123
REMARK   55  A    between atoms: _123  and  _124
REMARK   56  A    between atoms: _124  and  _125
REMARK   57  A    between atoms: _125  and  _126
REMARK   58  A    between atoms: _126  and  _127
REMARK   59  A    between atoms: _131  and  _133
REMARK   60  A    between atoms: _133  and  _134
REMARK   61  A    between atoms: _133  and  _136
REMARK   62  A    between atoms: _136  and  _137
REMARK   63  A    between atoms: _140  and  _142
REMARK   64  A    between atoms: _142  and  _143
REMARK   65  A    between atoms: _142  and  _145
REMARK   66  A    between atoms: _145  and  _146
REMARK   67  A    between atoms: _149  and  _151
REMARK   68  A    between atoms: _151  and  _152
REMARK   69  A    between atoms: _155  and  _157
REMARK   70  A    between atoms: _157  and  _158
REMARK   71  A    between atoms: _157  and  _160
REMARK   72  A    between atoms: _160  and  _161
REMARK   73  A    between atoms: _164  and  _166
REMARK   74  A    between atoms: _166  and  _167
REMARK   75  A    between atoms: _166  and  _169
REMARK   76  A    between atoms: _169  and  _170
REMARK   77  A    between atoms: _175  and  _176
REMARK   78  A    between atoms: _178  and  _180
REMARK   79  A    between atoms: _180  and  _181
REMARK   80  A    between atoms: _180  and  _183
REMARK   81  A    between atoms: _183  and  _184
REMARK   82  A    between atoms: _190  and  _192
REMARK   83  A    between atoms: _192  and  _193
REMARK   84  A    between atoms: _192  and  _195
REMARK   85  A    between atoms: _195  and  _196
REMARK   86  A    between atoms: _196  and  _197
REMARK   87  A    between atoms: _199  and  _201
REMARK   88  A    between atoms: _201  and  _202
REMARK   89  A    between atoms: _201  and  _204
REMARK   90  A    between atoms: _207  and  _209
REMARK   91  A    between atoms: _209  and  _210
REMARK   92  A    between atoms: _212  and  _214
REMARK   93  A    between atoms: _214  and  _215
REMARK   94  A    between atoms: _214  and  _217
REMARK   95  A    between atoms: _217  and  _218
REMARK   96  A    between atoms: _218  and  _219
REMARK   97  A    between atoms: _224  and  _226
REMARK   98  A    between atoms: _226  and  _227
REMARK   99  A    between atoms: _226  and  _229
REMARK  100  A    between atoms: _229  and  _230
REMARK  101  A    between atoms: _233  and  _235
REMARK  102  A    between atoms: _235  and  _236
REMARK  103  A    between atoms: _238  and  _240
REMARK  104  A    between atoms: _240  and  _241
REMARK  105  A    between atoms: _240  and  _243
REMARK  106  A    between atoms: _243  and  _244
REMARK  107  A    between atoms: _250  and  _252
REMARK  108  A    between atoms: _252  and  _253
REMARK  109  A    between atoms: _252  and  _255
REMARK  110  A    between atoms: _255  and  _256
REMARK  111  A    between atoms: _261  and  _262
REMARK  112  A    between atoms: _264  and  _266
REMARK  113  A    between atoms: _266  and  _267
REMARK  114  A    between atoms: _266  and  _269
REMARK  115  A    between atoms: _272  and  _274
REMARK  116  A    between atoms: _274  and  _275
REMARK  117  A    between atoms: _278  and  _280
REMARK  118  A    between atoms: _280  and  _281
REMARK  119  A    between atoms: _280  and  _283
REMARK  120  A    between atoms: _283  and  _284
REMARK  121  A    between atoms: _289  and  _290
REMARK  122  A    between atoms: _292  and  _294
REMARK  123  A    between atoms: _294  and  _295
REMARK  124  A    between atoms: _294  and  _297
REMARK  125  A    between atoms: _297  and  _298
REMARK                            x       y       z     vdW  Elec       q    Type
REMARK                         _______ _______ _______ _____ _____    ______ ____
ROOT
ATOM      1  O   HOH     1      11.131 -27.808 -35.122  0.00  0.00    +0.000 OA
ENDROOT
TORSDOF 0
REMARK  Name = ../refined-set-2016/4mrw/4mrw_pocket.pdb
REMARK  125 active torsions:
REMARK  status: ('A' for Active; 'I' for Inactive)
REMARK    1  A    between atoms: _1  and  _3
REMARK    2  A    between atoms: _3  and  _4
REMARK    3  A    between atoms: _3  and  _6
REMARK    4  A    between atoms: _6  and  _7
REMARK    5  A    between atoms: _12  and  _13
REMARK    6  A    between atoms: _15  and  _17
REMARK    7  A    between atoms: _17  and  _18
REMARK    8  A    between atoms: _17  and  _20
REMARK    9  A    between atoms: _20  and  _21
REMARK   10  A    between atoms: _26  and  _28
REMARK   11  A    between atoms: _28  and  _29
REMARK   12  A    between atoms: _28  and  _31
REMARK   13  A    between atoms: _31  and  _32
REMARK   14  A    between atoms: _36  and  NI_308
REMARK   15  A    between atoms: _37  and  _39
REMARK   16  A    between atoms: _39  and  _40
REMARK   17  A    between atoms: _39  and  _42
REMARK   18  A    between atoms: _42  and  _43
REMARK   19  A    between atoms: _46  and  _48
REMARK   20  A    between atoms: _48  and  _49
REMARK   21  A    between atoms: _48  and  _51
REMARK   22  A    between atoms: _51  and  _52
REMARK   23  A    between atoms: _55  and  _57
REMARK   24  A    between atoms: _57  and  _58
REMARK   25  A    between atoms: _61  and  _63
REMARK   26  A    between atoms: _63  and  _64
REMARK   27  A    between atoms: _63  and  _66
REMARK   28  A    between atoms: _68  and  _70
REMARK   29  A    between atoms: _70  and  _71
REMARK   30  A    between atoms: _70  and  _73
REMARK   31  A    between atoms: _73  and  _74
REMARK   32  A    between atoms: _74  and  _76
REMARK   33  A    between atoms: _76  and  NI_308
REMARK   34  A    between atoms: _77  and  _79
REMARK   35  A    between atoms: _79  and  _80
REMARK   36  A    between atoms: _79  and  _82
REMARK   37  A    between atoms: _82  and  _83
REMARK   38  A    between atoms: _86  and  _88
REMARK   39  A    between atoms: _88  and  _89
REMARK   40  A    between atoms: _88  and  _91
REMARK   41  A    between atoms: _93  and  _95
REMARK   42  A    between atoms: _95  and  _96
REMARK   43  A    between atoms: _95  and  _98
REMARK   44  A    between atoms: _98  and  _99
REMARK   45  A    between atoms: _101  and  _103
REMARK   46  A    between atoms: _103  and  _104
REMARK   47  A    between atoms: _103  and  _106
REMARK   48  A    between atoms: _109  and  _111
REMARK   49  A    between atoms: _111  and  _112
REMARK   50  A    between atoms: _111  and  _114
REMARK   51  A    between atoms: _114  and  _115
REMARK   52  A    between atoms: _118  and  _120
REMARK   53  A    between atoms: _120  and  _121
REMARK   54  A    between atoms: _120  and  _123
REMARK   55  A    between atoms: _123  and  _124
REMARK   56  A    between atoms: _124  and  _125
REMARK   57  A    between atoms: _125  and  _126
REMARK   58  A    between atoms: _126  and  _127
REMARK   59  A    between atoms: _131  and  _133
REMARK   60  A    between atoms: _133  and  _134
REMARK   61  A    between atoms: _133  and  _136
REMARK   62  A    between atoms: _136  and  _137
REMARK   63  A    between atoms: _140  and  _142
REMARK   64  A    between atoms: _142  and  _143
REMARK   65  A    between atoms: _142  and  _145
REMARK   66  A    between atoms: _145  and  _146
REMARK   67  A    between atoms: _149  and  _151
REMARK   68  A    between atoms: _151  and  _152
REMARK   69  A    between atoms: _155  and  _157
REMARK   70  A    between atoms: _157  and  _158
REMARK   71  A    between atoms: _157  and  _160
REMARK   72  A    between atoms: _160  and  _161
REMARK   73  A    between atoms: _164  and  _166
REMARK   74  A    between atoms: _166  and  _167
REMARK   75  A    between atoms: _166  and  _169
REMARK   76  A    between atoms: _169  and  _170
REMARK   77  A    between atoms: _175  and  _176
REMARK   78  A    between atoms: _178  and  _180
REMARK   79  A    between atoms: _180  and  _181
REMARK   80  A    between atoms: _180  and  _183
REMARK   81  A    between atoms: _183  and  _184
REMARK   82  A    between atoms: _190  and  _192
REMARK   83  A    between atoms: _192  and  _193
REMARK   84  A    between atoms: _192  and  _195
REMARK   85  A    between atoms: _195  and  _196
REMARK   86  A    between atoms: _196  and  _197
REMARK   87  A    between atoms: _199  and  _201
REMARK   88  A    between atoms: _201  and  _202
REMARK   89  A    between atoms: _201  and  _204
REMARK   90  A    between atoms: _207  and  _209
REMARK   91  A    between atoms: _209  and  _210
REMARK   92  A    between atoms: _212  and  _214
REMARK   93  A    between atoms: _214  and  _215
REMARK   94  A    between atoms: _214  and  _217
REMARK   95  A    between atoms: _217  and  _218
REMARK   96  A    between atoms: _218  and  _219
REMARK   97  A    between atoms: _224  and  _226
REMARK   98  A    between atoms: _226  and  _227
REMARK   99  A    between atoms: _226  and  _229
REMARK  100  A    between atoms: _229  and  _230
REMARK  101  A    between atoms: _233  and  _235
REMARK  102  A    between atoms: _235  and  _236
REMARK  103  A    between atoms: _238  and  _240
REMARK  104  A    between atoms: _240  and  _241
REMARK  105  A    between atoms: _240  and  _243
REMARK  106  A    between atoms: _243  and  _244
REMARK  107  A    between atoms: _250  and  _252
REMARK  108  A    between atoms: _252  and  _253
REMARK  109  A    between atoms: _252  and  _255
REMARK  110  A    between atoms: _255  and  _256
REMARK  111  A    between atoms: _261  and  _262
REMARK  112  A    between atoms: _264  and  _266
REMARK  113  A    between atoms: _266  and  _267
REMARK  114  A    between atoms: _266  and  _269
REMARK  115  A    between atoms: _272  and  _274
REMARK  116  A    between atoms: _274  and  _275
REMARK  117  A    between atoms: _278  and  _280
REMARK  118  A    between atoms: _280  and  _281
REMARK  119  A    between atoms: _280  and  _283
REMARK  120  A    between atoms: _283  and  _284
REMARK  121  A    between atoms: _289  and  _290
REMARK  122  A    between atoms: _292  and  _294
REMARK  123  A    between atoms: _294  and  _295
REMARK  124  A    between atoms: _294  and  _297
REMARK  125  A    between atoms: _297  and  _298
REMARK                            x       y       z     vdW  Elec       q    Type
REMARK                         _______ _______ _______ _____ _____    ______ ____
ROOT
ATOM      1  O   HOH     1      10.432 -34.720 -33.588  0.00  0.00    +0.000 OA
ENDROOT
TORSDOF 0
REMARK  Name = ../refined-set-2016/4mrw/4mrw_pocket.pdb
REMARK  125 active torsions:
REMARK  status: ('A' for Active; 'I' for Inactive)
REMARK    1  A    between atoms: _1  and  _3
REMARK    2  A    between atoms: _3  and  _4
REMARK    3  A    between atoms: _3  and  _6
REMARK    4  A    between atoms: _6  and  _7
REMARK    5  A    between atoms: _12  and  _13
REMARK    6  A    between atoms: _15  and  _17
REMARK    7  A    between atoms: _17  and  _18
REMARK    8  A    between atoms: _17  and  _20
REMARK    9  A    between atoms: _20  and  _21
REMARK   10  A    between atoms: _26  and  _28
REMARK   11  A    between atoms: _28  and  _29
REMARK   12  A    between atoms: _28  and  _31
REMARK   13  A    between atoms: _31  and  _32
REMARK   14  A    between atoms: _36  and  NI_308
REMARK   15  A    between atoms: _37  and  _39
REMARK   16  A    between atoms: _39  and  _40
REMARK   17  A    between atoms: _39  and  _42
REMARK   18  A    between atoms: _42  and  _43
REMARK   19  A    between atoms: _46  and  _48
REMARK   20  A    between atoms: _48  and  _49
REMARK   21  A    between atoms: _48  and  _51
REMARK   22  A    between atoms: _51  and  _52
REMARK   23  A    between atoms: _55  and  _57
REMARK   24  A    between atoms: _57  and  _58
REMARK   25  A    between atoms: _61  and  _63
REMARK   26  A    between atoms: _63  and  _64
REMARK   27  A    between atoms: _63  and  _66
REMARK   28  A    between atoms: _68  and  _70
REMARK   29  A    between atoms: _70  and  _71
REMARK   30  A    between atoms: _70  and  _73
REMARK   31  A    between atoms: _73  and  _74
REMARK   32  A    between atoms: _74  and  _76
REMARK   33  A    between atoms: _76  and  NI_308
REMARK   34  A    between atoms: _77  and  _79
REMARK   35  A    between atoms: _79  and  _80
REMARK   36  A    between atoms: _79  and  _82
REMARK   37  A    between atoms: _82  and  _83
REMARK   38  A    between atoms: _86  and  _88
REMARK   39  A    between atoms: _88  and  _89
REMARK   40  A    between atoms: _88  and  _91
REMARK   41  A    between atoms: _93  and  _95
REMARK   42  A    between atoms: _95  and  _96
REMARK   43  A    between atoms: _95  and  _98
REMARK   44  A    between atoms: _98  and  _99
REMARK   45  A    between atoms: _101  and  _103
REMARK   46  A    between atoms: _103  and  _104
REMARK   47  A    between atoms: _103  and  _106
REMARK   48  A    between atoms: _109  and  _111
REMARK   49  A    between atoms: _111  and  _112
REMARK   50  A    between atoms: _111  and  _114
REMARK   51  A    between atoms: _114  and  _115
REMARK   52  A    between atoms: _118  and  _120
REMARK   53  A    between atoms: _120  and  _121
REMARK   54  A    between atoms: _120  and  _123
REMARK   55  A    between atoms: _123  and  _124
REMARK   56  A    between atoms: _124  and  _125
REMARK   57  A    between atoms: _125  and  _126
REMARK   58  A    between atoms: _126  and  _127
REMARK   59  A    between atoms: _131  and  _133
REMARK   60  A    between atoms: _133  and  _134
REMARK   61  A    between atoms: _133  and  _136
REMARK   62  A    between atoms: _136  and  _137
REMARK   63  A    between atoms: _140  and  _142
REMARK   64  A    between atoms: _142  and  _143
REMARK   65  A    between atoms: _142  and  _145
REMARK   66  A    between atoms: _145  and  _146
REMARK   67  A    between atoms: _149  and  _151
REMARK   68  A    between atoms: _151  and  _152
REMARK   69  A    between atoms: _155  and  _157
REMARK   70  A    between atoms: _157  and  _158
REMARK   71  A    between atoms: _157  and  _160
REMARK   72  A    between atoms: _160  and  _161
REMARK   73  A    between atoms: _164  and  _166
REMARK   74  A    between atoms: _166  and  _167
REMARK   75  A    between atoms: _166  and  _169
REMARK   76  A    between atoms: _169  and  _170
REMARK   77  A    between atoms: _175  and  _176
REMARK   78  A    between atoms: _178  and  _180
REMARK   79  A    between atoms: _180  and  _181
REMARK   80  A    between atoms: _180  and  _183
REMARK   81  A    between atoms: _183  and  _184
REMARK   82  A    between atoms: _190  and  _192
REMARK   83  A    between atoms: _192  and  _193
REMARK   84  A    between atoms: _192  and  _195
REMARK   85  A    between atoms: _195  and  _196
REMARK   86  A    between atoms: _196  and  _197
REMARK   87  A    between atoms: _199  and  _201
REMARK   88  A    between atoms: _201  and  _202
REMARK   89  A    between atoms: _201  and  _204
REMARK   90  A    between atoms: _207  and  _209
REMARK   91  A    between atoms: _209  and  _210
REMARK   92  A    between atoms: _212  and  _214
REMARK   93  A    between atoms: _214  and  _215
REMARK   94  A    between atoms: _214  and  _217
REMARK   95  A    between atoms: _217  and  _218
REMARK   96  A    between atoms: _218  and  _219
REMARK   97  A    between atoms: _224  and  _226
REMARK   98  A    between atoms: _226  and  _227
REMARK   99  A    between atoms: _226  and  _229
REMARK  100  A    between atoms: _229  and  _230
REMARK  101  A    between atoms: _233  and  _235
REMARK  102  A    between atoms: _235  and  _236
REMARK  103  A    between atoms: _238  and  _240
REMARK  104  A    between atoms: _240  and  _241
REMARK  105  A    between atoms: _240  and  _243
REMARK  106  A    between atoms: _243  and  _244
REMARK  107  A    between atoms: _250  and  _252
REMARK  108  A    between atoms: _252  and  _253
REMARK  109  A    between atoms: _252  and  _255
REMARK  110  A    between atoms: _255  and  _256
REMARK  111  A    between atoms: _261  and  _262
REMARK  112  A    between atoms: _264  and  _266
REMARK  113  A    between atoms: _266  and  _267
REMARK  114  A    between atoms: _266  and  _269
REMARK  115  A    between atoms: _272  and  _274
REMARK  116  A    between atoms: _274  and  _275
REMARK  117  A    between atoms: _278  and  _280
REMARK  118  A    between atoms: _280  and  _281
REMARK  119  A    between atoms: _280  and  _283
REMARK  120  A    between atoms: _283  and  _284
REMARK  121  A    between atoms: _289  and  _290
REMARK  122  A    between atoms: _292  and  _294
REMARK  123  A    between atoms: _294  and  _295
REMARK  124  A    between atoms: _294  and  _297
REMARK  125  A    between atoms: _297  and  _298
REMARK                            x       y       z     vdW  Elec       q    Type
REMARK                         _______ _______ _______ _____ _____    ______ ____
ROOT
ATOM      1  O   HOH     1      10.648 -27.378 -25.442  0.00  0.00    +0.000 OA
ENDROOT
TORSDOF 0
REMARK  Name = ../refined-set-2016/4mrw/4mrw_pocket.pdb
REMARK  125 active torsions:
REMARK  status: ('A' for Active; 'I' for Inactive)
REMARK    1  A    between atoms: _1  and  _3
REMARK    2  A    between atoms: _3  and  _4
REMARK    3  A    between atoms: _3  and  _6
REMARK    4  A    between atoms: _6  and  _7
REMARK    5  A    between atoms: _12  and  _13
REMARK    6  A    between atoms: _15  and  _17
REMARK    7  A    between atoms: _17  and  _18
REMARK    8  A    between atoms: _17  and  _20
REMARK    9  A    between atoms: _20  and  _21
REMARK   10  A    between atoms: _26  and  _28
REMARK   11  A    between atoms: _28  and  _29
REMARK   12  A    between atoms: _28  and  _31
REMARK   13  A    between atoms: _31  and  _32
REMARK   14  A    between atoms: _36  and  NI_308
REMARK   15  A    between atoms: _37  and  _39
REMARK   16  A    between atoms: _39  and  _40
REMARK   17  A    between atoms: _39  and  _42
REMARK   18  A    between atoms: _42  and  _43
REMARK   19  A    between atoms: _46  and  _48
REMARK   20  A    between atoms: _48  and  _49
REMARK   21  A    between atoms: _48  and  _51
REMARK   22  A    between atoms: _51  and  _52
REMARK   23  A    between atoms: _55  and  _57
REMARK   24  A    between atoms: _57  and  _58
REMARK   25  A    between atoms: _61  and  _63
REMARK   26  A    between atoms: _63  and  _64
REMARK   27  A    between atoms: _63  and  _66
REMARK   28  A    between atoms: _68  and  _70
REMARK   29  A    between atoms: _70  and  _71
REMARK   30  A    between atoms: _70  and  _73
REMARK   31  A    between atoms: _73  and  _74
REMARK   32  A    between atoms: _74  and  _76
REMARK   33  A    between atoms: _76  and  NI_308
REMARK   34  A    between atoms: _77  and  _79
REMARK   35  A    between atoms: _79  and  _80
REMARK   36  A    between atoms: _79  and  _82
REMARK   37  A    between atoms: _82  and  _83
REMARK   38  A    between atoms: _86  and  _88
REMARK   39  A    between atoms: _88  and  _89
REMARK   40  A    between atoms: _88  and  _91
REMARK   41  A    between atoms: _93  and  _95
REMARK   42  A    between atoms: _95  and  _96
REMARK   43  A    between atoms: _95  and  _98
REMARK   44  A    between atoms: _98  and  _99
REMARK   45  A    between atoms: _101  and  _103
REMARK   46  A    between atoms: _103  and  _104
REMARK   47  A    between atoms: _103  and  _106
REMARK   48  A    between atoms: _109  and  _111
REMARK   49  A    between atoms: _111  and  _112
REMARK   50  A    between atoms: _111  and  _114
REMARK   51  A    between atoms: _114  and  _115
REMARK   52  A    between atoms: _118  and  _120
REMARK   53  A    between atoms: _120  and  _121
REMARK   54  A    between atoms: _120  and  _123
REMARK   55  A    between atoms: _123  and  _124
REMARK   56  A    between atoms: _124  and  _125
REMARK   57  A    between atoms: _125  and  _126
REMARK   58  A    between atoms: _126  and  _127
REMARK   59  A    between atoms: _131  and  _133
REMARK   60  A    between atoms: _133  and  _134
REMARK   61  A    between atoms: _133  and  _136
REMARK   62  A    between atoms: _136  and  _137
REMARK   63  A    between atoms: _140  and  _142
REMARK   64  A    between atoms: _142  and  _143
REMARK   65  A    between atoms: _142  and  _145
REMARK   66  A    between atoms: _145  and  _146
REMARK   67  A    between atoms: _149  and  _151
REMARK   68  A    between atoms: _151  and  _152
REMARK   69  A    between atoms: _155  and  _157
REMARK   70  A    between atoms: _157  and  _158
REMARK   71  A    between atoms: _157  and  _160
REMARK   72  A    between atoms: _160  and  _161
REMARK   73  A    between atoms: _164  and  _166
REMARK   74  A    between atoms: _166  and  _167
REMARK   75  A    between atoms: _166  and  _169
REMARK   76  A    between atoms: _169  and  _170
REMARK   77  A    between atoms: _175  and  _176
REMARK   78  A    between atoms: _178  and  _180
REMARK   79  A    between atoms: _180  and  _181
REMARK   80  A    between atoms: _180  and  _183
REMARK   81  A    between atoms: _183  and  _184
REMARK   82  A    between atoms: _190  and  _192
REMARK   83  A    between atoms: _192  and  _193
REMARK   84  A    between atoms: _192  and  _195
REMARK   85  A    between atoms: _195  and  _196
REMARK   86  A    between atoms: _196  and  _197
REMARK   87  A    between atoms: _199  and  _201
REMARK   88  A    between atoms: _201  and  _202
REMARK   89  A    between atoms: _201  and  _204
REMARK   90  A    between atoms: _207  and  _209
REMARK   91  A    between atoms: _209  and  _210
REMARK   92  A    between atoms: _212  and  _214
REMARK   93  A    between atoms: _214  and  _215
REMARK   94  A    between atoms: _214  and  _217
REMARK   95  A    between atoms: _217  and  _218
REMARK   96  A    between atoms: _218  and  _219
REMARK   97  A    between atoms: _224  and  _226
REMARK   98  A    between atoms: _226  and  _227
REMARK   99  A    between atoms: _226  and  _229
REMARK  100  A    between atoms: _229  and  _230
REMARK  101  A    between atoms: _233  and  _235
REMARK  102  A    between atoms: _235  and  _236
REMARK  103  A    between atoms: _238  and  _240
REMARK  104  A    between atoms: _240  and  _241
REMARK  105  A    between atoms: _240  and  _243
REMARK  106  A    between atoms: _243  and  _244
REMARK  107  A    between atoms: _250  and  _252
REMARK  108  A    between atoms: _252  and  _253
REMARK  109  A    between atoms: _252  and  _255
REMARK  110  A    between atoms: _255  and  _256
REMARK  111  A    between atoms: _261  and  _262
REMARK  112  A    between atoms: _264  and  _266
REMARK  113  A    between atoms: _266  and  _267
REMARK  114  A    between atoms: _266  and  _269
REMARK  115  A    between atoms: _272  and  _274
REMARK  116  A    between atoms: _274  and  _275
REMARK  117  A    between atoms: _278  and  _280
REMARK  118  A    between atoms: _280  and  _281
REMARK  119  A    between atoms: _280  and  _283
REMARK  120  A    between atoms: _283  and  _284
REMARK  121  A    between atoms: _289  and  _290
REMARK  122  A    between atoms: _292  and  _294
REMARK  123  A    between atoms: _294  and  _295
REMARK  124  A    between atoms: _294  and  _297
REMARK  125  A    between atoms: _297  and  _298
REMARK                            x       y       z     vdW  Elec       q    Type
REMARK                         _______ _______ _______ _____ _____    ______ ____
ROOT
ATOM      1  O   HOH     1       5.529 -31.249 -37.681  0.00  0.00    +0.000 OA
ENDROOT
TORSDOF 0
REMARK  Name = ../refined-set-2016/4mrw/4mrw_pocket.pdb
REMARK  125 active torsions:
REMARK  status: ('A' for Active; 'I' for Inactive)
REMARK    1  A    between atoms: _1  and  _3
REMARK    2  A    between atoms: _3  and  _4
REMARK    3  A    between atoms: _3  and  _6
REMARK    4  A    between atoms: _6  and  _7
REMARK    5  A    between atoms: _12  and  _13
REMARK    6  A    between atoms: _15  and  _17
REMARK    7  A    between atoms: _17  and  _18
REMARK    8  A    between atoms: _17  and  _20
REMARK    9  A    between atoms: _20  and  _21
REMARK   10  A    between atoms: _26  and  _28
REMARK   11  A    between atoms: _28  and  _29
REMARK   12  A    between atoms: _28  and  _31
REMARK   13  A    between atoms: _31  and  _32
REMARK   14  A    between atoms: _36  and  NI_308
REMARK   15  A    between atoms: _37  and  _39
REMARK   16  A    between atoms: _39  and  _40
REMARK   17  A    between atoms: _39  and  _42
REMARK   18  A    between atoms: _42  and  _43
REMARK   19  A    between atoms: _46  and  _48
REMARK   20  A    between atoms: _48  and  _49
REMARK   21  A    between atoms: _48  and  _51
REMARK   22  A    between atoms: _51  and  _52
REMARK   23  A    between atoms: _55  and  _57
REMARK   24  A    between atoms: _57  and  _58
REMARK   25  A    between atoms: _61  and  _63
REMARK   26  A    between atoms: _63  and  _64
REMARK   27  A    between atoms: _63  and  _66
REMARK   28  A    between atoms: _68  and  _70
REMARK   29  A    between atoms: _70  and  _71
REMARK   30  A    between atoms: _70  and  _73
REMARK   31  A    between atoms: _73  and  _74
REMARK   32  A    between atoms: _74  and  _76
REMARK   33  A    between atoms: _76  and  NI_308
REMARK   34  A    between atoms: _77  and  _79
REMARK   35  A    between atoms: _79  and  _80
REMARK   36  A    between atoms: _79  and  _82
REMARK   37  A    between atoms: _82  and  _83
REMARK   38  A    between atoms: _86  and  _88
REMARK   39  A    between atoms: _88  and  _89
REMARK   40  A    between atoms: _88  and  _91
REMARK   41  A    between atoms: _93  and  _95
REMARK   42  A    between atoms: _95  and  _96
REMARK   43  A    between atoms: _95  and  _98
REMARK   44  A    between atoms: _98  and  _99
REMARK   45  A    between atoms: _101  and  _103
REMARK   46  A    between atoms: _103  and  _104
REMARK   47  A    between atoms: _103  and  _106
REMARK   48  A    between atoms: _109  and  _111
REMARK   49  A    between atoms: _111  and  _112
REMARK   50  A    between atoms: _111  and  _114
REMARK   51  A    between atoms: _114  and  _115
REMARK   52  A    between atoms: _118  and  _120
REMARK   53  A    between atoms: _120  and  _121
REMARK   54  A    between atoms: _120  and  _123
REMARK   55  A    between atoms: _123  and  _124
REMARK   56  A    between atoms: _124  and  _125
REMARK   57  A    between atoms: _125  and  _126
REMARK   58  A    between atoms: _126  and  _127
REMARK   59  A    between atoms: _131  and  _133
REMARK   60  A    between atoms: _133  and  _134
REMARK   61  A    between atoms: _133  and  _136
REMARK   62  A    between atoms: _136  and  _137
REMARK   63  A    between atoms: _140  and  _142
REMARK   64  A    between atoms: _142  and  _143
REMARK   65  A    between atoms: _142  and  _145
REMARK   66  A    between atoms: _145  and  _146
REMARK   67  A    between atoms: _149  and  _151
REMARK   68  A    between atoms: _151  and  _152
REMARK   69  A    between atoms: _155  and  _157
REMARK   70  A    between atoms: _157  and  _158
REMARK   71  A    between atoms: _157  and  _160
REMARK   72  A    between atoms: _160  and  _161
REMARK   73  A    between atoms: _164  and  _166
REMARK   74  A    between atoms: _166  and  _167
REMARK   75  A    between atoms: _166  and  _169
REMARK   76  A    between atoms: _169  and  _170
REMARK   77  A    between atoms: _175  and  _176
REMARK   78  A    between atoms: _178  and  _180
REMARK   79  A    between atoms: _180  and  _181
REMARK   80  A    between atoms: _180  and  _183
REMARK   81  A    between atoms: _183  and  _184
REMARK   82  A    between atoms: _190  and  _192
REMARK   83  A    between atoms: _192  and  _193
REMARK   84  A    between atoms: _192  and  _195
REMARK   85  A    between atoms: _195  and  _196
REMARK   86  A    between atoms: _196  and  _197
REMARK   87  A    between atoms: _199  and  _201
REMARK   88  A    between atoms: _201  and  _202
REMARK   89  A    between atoms: _201  and  _204
REMARK   90  A    between atoms: _207  and  _209
REMARK   91  A    between atoms: _209  and  _210
REMARK   92  A    between atoms: _212  and  _214
REMARK   93  A    between atoms: _214  and  _215
REMARK   94  A    between atoms: _214  and  _217
REMARK   95  A    between atoms: _217  and  _218
REMARK   96  A    between atoms: _218  and  _219
REMARK   97  A    between atoms: _224  and  _226
REMARK   98  A    between atoms: _226  and  _227
REMARK   99  A    between atoms: _226  and  _229
REMARK  100  A    between atoms: _229  and  _230
REMARK  101  A    between atoms: _233  and  _235
REMARK  102  A    between atoms: _235  and  _236
REMARK  103  A    between atoms: _238  and  _240
REMARK  104  A    between atoms: _240  and  _241
REMARK  105  A    between atoms: _240  and  _243
REMARK  106  A    between atoms: _243  and  _244
REMARK  107  A    between atoms: _250  and  _252
REMARK  108  A    between atoms: _252  and  _253
REMARK  109  A    between atoms: _252  and  _255
REMARK  110  A    between atoms: _255  and  _256
REMARK  111  A    between atoms: _261  and  _262
REMARK  112  A    between atoms: _264  and  _266
REMARK  113  A    between atoms: _266  and  _267
REMARK  114  A    between atoms: _266  and  _269
REMARK  115  A    between atoms: _272  and  _274
REMARK  116  A    between atoms: _274  and  _275
REMARK  117  A    between atoms: _278  and  _280
REMARK  118  A    between atoms: _280  and  _281
REMARK  119  A    between atoms: _280  and  _283
REMARK  120  A    between atoms: _283  and  _284
REMARK  121  A    between atoms: _289  and  _290
REMARK  122  A    between atoms: _292  and  _294
REMARK  123  A    between atoms: _294  and  _295
REMARK  124  A    between atoms: _294  and  _297
REMARK  125  A    between atoms: _297  and  _298
REMARK                            x       y       z     vdW  Elec       q    Type
REMARK                         _______ _______ _______ _____ _____    ______ ____
ROOT
ATOM      1  O   HOH     1      11.066 -31.974 -37.333  0.00  0.00    +0.000 OA
ENDROOT
TORSDOF 0
REMARK  Name = ../refined-set-2016/4mrw/4mrw_pocket.pdb
REMARK  125 active torsions:
REMARK  status: ('A' for Active; 'I' for Inactive)
REMARK    1  A    between atoms: _1  and  _3
REMARK    2  A    between atoms: _3  and  _4
REMARK    3  A    between atoms: _3  and  _6
REMARK    4  A    between atoms: _6  and  _7
REMARK    5  A    between atoms: _12  and  _13
REMARK    6  A    between atoms: _15  and  _17
REMARK    7  A    between atoms: _17  and  _18
REMARK    8  A    between atoms: _17  and  _20
REMARK    9  A    between atoms: _20  and  _21
REMARK   10  A    between atoms: _26  and  _28
REMARK   11  A    between atoms: _28  and  _29
REMARK   12  A    between atoms: _28  and  _31
REMARK   13  A    between atoms: _31  and  _32
REMARK   14  A    between atoms: _36  and  NI_308
REMARK   15  A    between atoms: _37  and  _39
REMARK   16  A    between atoms: _39  and  _40
REMARK   17  A    between atoms: _39  and  _42
REMARK   18  A    between atoms: _42  and  _43
REMARK   19  A    between atoms: _46  and  _48
REMARK   20  A    between atoms: _48  and  _49
REMARK   21  A    between atoms: _48  and  _51
REMARK   22  A    between atoms: _51  and  _52
REMARK   23  A    between atoms: _55  and  _57
REMARK   24  A    between atoms: _57  and  _58
REMARK   25  A    between atoms: _61  and  _63
REMARK   26  A    between atoms: _63  and  _64
REMARK   27  A    between atoms: _63  and  _66
REMARK   28  A    between atoms: _68  and  _70
REMARK   29  A    between atoms: _70  and  _71
REMARK   30  A    between atoms: _70  and  _73
REMARK   31  A    between atoms: _73  and  _74
REMARK   32  A    between atoms: _74  and  _76
REMARK   33  A    between atoms: _76  and  NI_308
REMARK   34  A    between atoms: _77  and  _79
REMARK   35  A    between atoms: _79  and  _80
REMARK   36  A    between atoms: _79  and  _82
REMARK   37  A    between atoms: _82  and  _83
REMARK   38  A    between atoms: _86  and  _88
REMARK   39  A    between atoms: _88  and  _89
REMARK   40  A    between atoms: _88  and  _91
REMARK   41  A    between atoms: _93  and  _95
REMARK   42  A    between atoms: _95  and  _96
REMARK   43  A    between atoms: _95  and  _98
REMARK   44  A    between atoms: _98  and  _99
REMARK   45  A    between atoms: _101  and  _103
REMARK   46  A    between atoms: _103  and  _104
REMARK   47  A    between atoms: _103  and  _106
REMARK   48  A    between atoms: _109  and  _111
REMARK   49  A    between atoms: _111  and  _112
REMARK   50  A    between atoms: _111  and  _114
REMARK   51  A    between atoms: _114  and  _115
REMARK   52  A    between atoms: _118  and  _120
REMARK   53  A    between atoms: _120  and  _121
REMARK   54  A    between atoms: _120  and  _123
REMARK   55  A    between atoms: _123  and  _124
REMARK   56  A    between atoms: _124  and  _125
REMARK   57  A    between atoms: _125  and  _126
REMARK   58  A    between atoms: _126  and  _127
REMARK   59  A    between atoms: _131  and  _133
REMARK   60  A    between atoms: _133  and  _134
REMARK   61  A    between atoms: _133  and  _136
REMARK   62  A    between atoms: _136  and  _137
REMARK   63  A    between atoms: _140  and  _142
REMARK   64  A    between atoms: _142  and  _143
REMARK   65  A    between atoms: _142  and  _145
REMARK   66  A    between atoms: _145  and  _146
REMARK   67  A    between atoms: _149  and  _151
REMARK   68  A    between atoms: _151  and  _152
REMARK   69  A    between atoms: _155  and  _157
REMARK   70  A    between atoms: _157  and  _158
REMARK   71  A    between atoms: _157  and  _160
REMARK   72  A    between atoms: _160  and  _161
REMARK   73  A    between atoms: _164  and  _166
REMARK   74  A    between atoms: _166  and  _167
REMARK   75  A    between atoms: _166  and  _169
REMARK   76  A    between atoms: _169  and  _170
REMARK   77  A    between atoms: _175  and  _176
REMARK   78  A    between atoms: _178  and  _180
REMARK   79  A    between atoms: _180  and  _181
REMARK   80  A    between atoms: _180  and  _183
REMARK   81  A    between atoms: _183  and  _184
REMARK   82  A    between atoms: _190  and  _192
REMARK   83  A    between atoms: _192  and  _193
REMARK   84  A    between atoms: _192  and  _195
REMARK   85  A    between atoms: _195  and  _196
REMARK   86  A    between atoms: _196  and  _197
REMARK   87  A    between atoms: _199  and  _201
REMARK   88  A    between atoms: _201  and  _202
REMARK   89  A    between atoms: _201  and  _204
REMARK   90  A    between atoms: _207  and  _209
REMARK   91  A    between atoms: _209  and  _210
REMARK   92  A    between atoms: _212  and  _214
REMARK   93  A    between atoms: _214  and  _215
REMARK   94  A    between atoms: _214  and  _217
REMARK   95  A    between atoms: _217  and  _218
REMARK   96  A    between atoms: _218  and  _219
REMARK   97  A    between atoms: _224  and  _226
REMARK   98  A    between atoms: _226  and  _227
REMARK   99  A    between atoms: _226  and  _229
REMARK  100  A    between atoms: _229  and  _230
REMARK  101  A    between atoms: _233  and  _235
REMARK  102  A    between atoms: _235  and  _236
REMARK  103  A    between atoms: _238  and  _240
REMARK  104  A    between atoms: _240  and  _241
REMARK  105  A    between atoms: _240  and  _243
REMARK  106  A    between atoms: _243  and  _244
REMARK  107  A    between atoms: _250  and  _252
REMARK  108  A    between atoms: _252  and  _253
REMARK  109  A    between atoms: _252  and  _255
REMARK  110  A    between atoms: _255  and  _256
REMARK  111  A    between atoms: _261  and  _262
REMARK  112  A    between atoms: _264  and  _266
REMARK  113  A    between atoms: _266  and  _267
REMARK  114  A    between atoms: _266  and  _269
REMARK  115  A    between atoms: _272  and  _274
REMARK  116  A    between atoms: _274  and  _275
REMARK  117  A    between atoms: _278  and  _280
REMARK  118  A    between atoms: _280  and  _281
REMARK  119  A    between atoms: _280  and  _283
REMARK  120  A    between atoms: _283  and  _284
REMARK  121  A    between atoms: _289  and  _290
REMARK  122  A    between atoms: _292  and  _294
REMARK  123  A    between atoms: _294  and  _295
REMARK  124  A    between atoms: _294  and  _297
REMARK  125  A    between atoms: _297  and  _298
REMARK                            x       y       z     vdW  Elec       q    Type
REMARK                         _______ _______ _______ _____ _____    ______ ____
ROOT
ATOM      1  O   HOH     1       7.179 -25.853 -23.517  0.00  0.00    +0.000 OA
ENDROOT
TORSDOF 0
