REMARK  Name = ../refined-set-2016/1gvw/1gvw_pocket.pdb
REMARK  241 active torsions:
REMARK  status: ('A' for Active; 'I' for Inactive)
REMARK    1  A    between atoms: _1  and  _3
REMARK    2  A    between atoms: _3  and  _4
REMARK    3  A    between atoms: _3  and  _6
REMARK    4  A    between atoms: _6  and  _7
REMARK    5  A    between atoms: _10  and  _12
REMARK    6  A    between atoms: _12  and  _13
REMARK    7  A    between atoms: _12  and  _15
REMARK    8  A    between atoms: _15  and  _16
REMARK    9  A    between atoms: _19  and  _21
REMARK   10  A    between atoms: _21  and  _22
REMARK   11  A    between atoms: _21  and  _24
REMARK   12  A    between atoms: _24  and  _25
REMARK   13  A    between atoms: _28  and  _30
REMARK   14  A    between atoms: _30  and  _31
REMARK   15  A    between atoms: _30  and  _33
REMARK   16  A    between atoms: _33  and  _34
REMARK   17  A    between atoms: _37  and  _39
REMARK   18  A    between atoms: _39  and  _40
REMARK   19  A    between atoms: _39  and  _42
REMARK   20  A    between atoms: _42  and  _43
REMARK   21  A    between atoms: _46  and  _48
REMARK   22  A    between atoms: _48  and  _49
REMARK   23  A    between atoms: _52  and  _54
REMARK   24  A    between atoms: _54  and  _55
REMARK   25  A    between atoms: _54  and  _57
REMARK   26  A    between atoms: _57  and  _58
REMARK   27  A    between atoms: _63  and  _64
REMARK   28  A    between atoms: _66  and  _68
REMARK   29  A    between atoms: _68  and  _69
REMARK   30  A    between atoms: _68  and  _71
REMARK   31  A    between atoms: _71  and  _72
REMARK   32  A    between atoms: _75  and  _77
REMARK   33  A    between atoms: _77  and  _78
REMARK   34  A    between atoms: _77  and  _80
REMARK   35  A    between atoms: _80  and  _81
REMARK   36  A    between atoms: _87  and  _89
REMARK   37  A    between atoms: _89  and  _90
REMARK   38  A    between atoms: _89  and  _92
REMARK   39  A    between atoms: _92  and  _93
REMARK   40  A    between atoms: _96  and  _98
REMARK   41  A    between atoms: _98  and  _99
REMARK   42  A    between atoms: _98  and  _101
REMARK   43  A    between atoms: _101  and  _102
REMARK   44  A    between atoms: _105  and  _107
REMARK   45  A    between atoms: _107  and  _108
REMARK   46  A    between atoms: _110  and  _112
REMARK   47  A    between atoms: _112  and  _113
REMARK   48  A    between atoms: _112  and  _115
REMARK   49  A    between atoms: _115  and  _116
REMARK   50  A    between atoms: _118  and  _120
REMARK   51  A    between atoms: _120  and  _121
REMARK   52  A    between atoms: _120  and  _123
REMARK   53  A    between atoms: _123  and  _124
REMARK   54  A    between atoms: _126  and  _128
REMARK   55  A    between atoms: _128  and  _129
REMARK   56  A    between atoms: _128  and  _131
REMARK   57  A    between atoms: _131  and  _132
REMARK   58  A    between atoms: _135  and  _137
REMARK   59  A    between atoms: _137  and  _138
REMARK   60  A    between atoms: _137  and  _140
REMARK   61  A    between atoms: _140  and  _141
REMARK   62  A    between atoms: _151  and  _153
REMARK   63  A    between atoms: _153  and  _154
REMARK   64  A    between atoms: _153  and  _156
REMARK   65  A    between atoms: _156  and  _157
REMARK   66  A    between atoms: _159  and  _161
REMARK   67  A    between atoms: _161  and  _162
REMARK   68  A    between atoms: _161  and  _164
REMARK   69  A    between atoms: _164  and  _165
REMARK   70  A    between atoms: _168  and  _170
REMARK   71  A    between atoms: _170  and  _171
REMARK   72  A    between atoms: _170  and  _173
REMARK   73  A    between atoms: _173  and  _174
REMARK   74  A    between atoms: _176  and  _178
REMARK   75  A    between atoms: _178  and  _179
REMARK   76  A    between atoms: _178  and  _181
REMARK   77  A    between atoms: _181  and  _182
REMARK   78  A    between atoms: _187  and  _188
REMARK   79  A    between atoms: _190  and  _192
REMARK   80  A    between atoms: _192  and  _193
REMARK   81  A    between atoms: _195  and  _197
REMARK   82  A    between atoms: _197  and  _198
REMARK   83  A    between atoms: _197  and  _200
REMARK   84  A    between atoms: _200  and  _201
REMARK   85  A    between atoms: _204  and  _206
REMARK   86  A    between atoms: _206  and  _207
REMARK   87  A    between atoms: _209  and  _211
REMARK   88  A    between atoms: _211  and  _212
REMARK   89  A    between atoms: _211  and  _214
REMARK   90  A    between atoms: _214  and  _215
REMARK   91  A    between atoms: _217  and  _219
REMARK   92  A    between atoms: _219  and  _220
REMARK   93  A    between atoms: _219  and  _222
REMARK   94  A    between atoms: _222  and  _223
REMARK   95  A    between atoms: _225  and  _227
REMARK   96  A    between atoms: _227  and  _228
REMARK   97  A    between atoms: _227  and  _230
REMARK   98  A    between atoms: _230  and  _231
REMARK   99  A    between atoms: _233  and  _235
REMARK  100  A    between atoms: _235  and  _236
REMARK  101  A    between atoms: _235  and  _238
REMARK  102  A    between atoms: _238  and  _239
REMARK  103  A    between atoms: _245  and  _247
REMARK  104  A    between atoms: _247  and  _248
REMARK  105  A    between atoms: _247  and  _250
REMARK  106  A    between atoms: _250  and  _251
REMARK  107  A    between atoms: _254  and  _256
REMARK  108  A    between atoms: _256  and  _257
REMARK  109  A    between atoms: _256  and  _259
REMARK  110  A    between atoms: _259  and  _260
REMARK  111  A    between atoms: _263  and  _265
REMARK  112  A    between atoms: _265  and  _266
REMARK  113  A    between atoms: _265  and  _268
REMARK  114  A    between atoms: _268  and  _269
REMARK  115  A    between atoms: _272  and  _274
REMARK  116  A    between atoms: _274  and  _275
REMARK  117  A    between atoms: _277  and  _279
REMARK  118  A    between atoms: _279  and  _280
REMARK  119  A    between atoms: _279  and  _282
REMARK  120  A    between atoms: _282  and  _283
REMARK  121  A    between atoms: _286  and  _288
REMARK  122  A    between atoms: _288  and  _289
REMARK  123  A    between atoms: _288  and  _291
REMARK  124  A    between atoms: _291  and  _292
REMARK  125  A    between atoms: _295  and  _297
REMARK  126  A    between atoms: _297  and  _298
REMARK  127  A    between atoms: _300  and  _302
REMARK  128  A    between atoms: _302  and  _303
REMARK  129  A    between atoms: _302  and  _305
REMARK  130  A    between atoms: _305  and  _306
REMARK  131  A    between atoms: _309  and  _311
REMARK  132  A    between atoms: _311  and  _312
REMARK  133  A    between atoms: _315  and  _317
REMARK  134  A    between atoms: _317  and  _318
REMARK  135  A    between atoms: _317  and  _320
REMARK  136  A    between atoms: _320  and  _321
REMARK  137  A    between atoms: _327  and  _329
REMARK  138  A    between atoms: _329  and  _330
REMARK  139  A    between atoms: _329  and  _332
REMARK  140  A    between atoms: _332  and  _333
REMARK  141  A    between atoms: _336  and  _338
REMARK  142  A    between atoms: _338  and  _339
REMARK  143  A    between atoms: _338  and  _341
REMARK  144  A    between atoms: _341  and  _342
REMARK  145  A    between atoms: _345  and  _347
REMARK  146  A    between atoms: _347  and  _348
REMARK  147  A    between atoms: _347  and  _350
REMARK  148  A    between atoms: _350  and  _351
REMARK  149  A    between atoms: _356  and  _358
REMARK  150  A    between atoms: _358  and  _359
REMARK  151  A    between atoms: _358  and  _361
REMARK  152  A    between atoms: _361  and  _362
REMARK  153  A    between atoms: _365  and  _367
REMARK  154  A    between atoms: _367  and  _368
REMARK  155  A    between atoms: _367  and  _370
REMARK  156  A    between atoms: _370  and  _371
REMARK  157  A    between atoms: _371  and  _372
REMARK  158  A    between atoms: _377  and  _379
REMARK  159  A    between atoms: _379  and  _380
REMARK  160  A    between atoms: _382  and  _384
REMARK  161  A    between atoms: _384  and  _385
REMARK  162  A    between atoms: _384  and  _387
REMARK  163  A    between atoms: _387  and  _388
REMARK  164  A    between atoms: _394  and  _396
REMARK  165  A    between atoms: _396  and  _397
REMARK  166  A    between atoms: _396  and  _399
REMARK  167  A    between atoms: _399  and  _400
REMARK  168  A    between atoms: _403  and  _405
REMARK  169  A    between atoms: _405  and  _406
REMARK  170  A    between atoms: _409  and  _411
REMARK  171  A    between atoms: _411  and  _412
REMARK  172  A    between atoms: _411  and  _414
REMARK  173  A    between atoms: _414  and  _415
REMARK  174  A    between atoms: _418  and  _420
REMARK  175  A    between atoms: _420  and  _421
REMARK  176  A    between atoms: _420  and  _423
REMARK  177  A    between atoms: _423  and  _424
REMARK  178  A    between atoms: _427  and  _429
REMARK  179  A    between atoms: _429  and  _430
REMARK  180  A    between atoms: _432  and  _434
REMARK  181  A    between atoms: _434  and  _435
REMARK  182  A    between atoms: _434  and  _437
REMARK  183  A    between atoms: _437  and  _438
REMARK  184  A    between atoms: _441  and  _443
REMARK  185  A    between atoms: _443  and  _444
REMARK  186  A    between atoms: _443  and  _446
REMARK  187  A    between atoms: _446  and  _447
REMARK  188  A    between atoms: _450  and  _452
REMARK  189  A    between atoms: _452  and  _453
REMARK  190  A    between atoms: _452  and  _455
REMARK  191  A    between atoms: _455  and  _456
REMARK  192  A    between atoms: _459  and  _461
REMARK  193  A    between atoms: _461  and  _462
REMARK  194  A    between atoms: _461  and  _464
REMARK  195  A    between atoms: _464  and  _465
REMARK  196  A    between atoms: _470  and  _471
REMARK  197  A    between atoms: _473  and  _475
REMARK  198  A    between atoms: _475  and  _476
REMARK  199  A    between atoms: _478  and  _480
REMARK  200  A    between atoms: _480  and  _481
REMARK  201  A    between atoms: _480  and  _483
REMARK  202  A    between atoms: _483  and  _484
REMARK  203  A    between atoms: _490  and  _492
REMARK  204  A    between atoms: _492  and  _493
REMARK  205  A    between atoms: _492  and  _495
REMARK  206  A    between atoms: _495  and  _496
REMARK  207  A    between atoms: _502  and  _504
REMARK  208  A    between atoms: _504  and  _505
REMARK  209  A    between atoms: _507  and  _509
REMARK  210  A    between atoms: _509  and  _510
REMARK  211  A    between atoms: _512  and  _514
REMARK  212  A    between atoms: _514  and  _515
REMARK  213  A    between atoms: _514  and  _517
REMARK  214  A    between atoms: _517  and  _518
REMARK  215  A    between atoms: _518  and  _519
REMARK  216  A    between atoms: _524  and  _526
REMARK  217  A    between atoms: _526  and  _527
REMARK  218  A    between atoms: _529  and  _531
REMARK  219  A    between atoms: _531  and  _532
REMARK  220  A    between atoms: _531  and  _534
REMARK  221  A    between atoms: _534  and  _535
REMARK  222  A    between atoms: _538  and  _540
REMARK  223  A    between atoms: _540  and  _541
REMARK  224  A    between atoms: _543  and  _545
REMARK  225  A    between atoms: _545  and  _546
REMARK  226  A    between atoms: _545  and  _548
REMARK  227  A    between atoms: _548  and  _549
REMARK  228  A    between atoms: _552  and  _554
REMARK  229  A    between atoms: _554  and  _555
REMARK  230  A    between atoms: _554  and  _557
REMARK  231  A    between atoms: _557  and  _558
REMARK  232  A    between atoms: _563  and  _565
REMARK  233  A    between atoms: _565  and  _566
REMARK  234  A    between atoms: _565  and  _568
REMARK  235  A    between atoms: _568  and  _569
REMARK  236  A    between atoms: _572  and  _574
REMARK  237  A    between atoms: _574  and  _575
REMARK  238  A    between atoms: _577  and  _579
REMARK  239  A    between atoms: _579  and  _580
REMARK  240  A    between atoms: _579  and  _582
REMARK  241  A    between atoms: _582  and  _583
REMARK                            x       y       z     vdW  Elec       q    Type
REMARK                         _______ _______ _______ _____ _____    ______ ____
ROOT
ATOM      1  C   ILE A   1      13.941  21.496  21.816  0.00  0.00    +0.238 C 
ATOM      2  O   ILE A   1      14.429  21.651  22.955  0.00  0.00    -0.274 OA
ATOM      3  N   ASP A   2      13.081  20.514  21.527  0.00  0.00    -0.298 N 
ATOM      4  H   ASP A   2      12.832  20.361  20.529  0.00  0.00    +0.150 HD
ENDROOT
BRANCH   1   5
ATOM      5  CA  ILE A   1      14.302  22.497  20.697  0.00  0.00    +0.145 C 
BRANCH   5   6
ATOM      6  N   ILE A   1      13.963  21.995  19.370  0.00  0.00    -0.238 NA
ATOM      7  H   ILE A   1      13.098  22.337  18.905  0.00  0.00    +0.142 HD
ENDBRANCH   5   6
BRANCH   5   8
ATOM      8  CB  ILE A   1      13.611  23.842  21.030  0.00  0.00    +0.025 C 
ATOM      9  CG2 ILE A   1      14.132  24.969  20.083  0.00  0.00    +0.002 C 
BRANCH   8  10
ATOM     10  CG1 ILE A   1      12.046  23.777  21.095  0.00  0.00    +0.002 C 
ATOM     11  CD1 ILE A   1      11.376  24.994  21.736  0.00  0.00    +0.000 C 
ENDBRANCH   8  10
ENDBRANCH   5   8
ENDBRANCH   1   5
BRANCH   3  12
ATOM     12  CA  ASP A   2      12.460  19.628  22.545  0.00  0.00    +0.148 C 
BRANCH  12  13
ATOM     13  C   ASP A   2      11.966  18.352  21.856  0.00  0.00    +0.227 C 
ATOM     14  O   ASP A   2      12.048  18.178  20.629  0.00  0.00    -0.286 OA
ENDBRANCH  12  13
BRANCH  12  15
ATOM     15  CB  ASP A   2      11.359  20.307  23.383  0.00  0.00    +0.142 C 
BRANCH  15  16
ATOM     16  CG  ASP A   2      10.088  20.762  22.626  0.00  0.00    +0.367 C 
ATOM     17  OD2 ASP A   2       9.392  21.680  23.157  0.00  0.00    -0.246 OA
ATOM     18  OD1 ASP A   2       9.811  20.243  21.516  0.00  0.00    -0.246 OA
ENDBRANCH  15  16
ENDBRANCH  12  15
ENDBRANCH   3  12
TORSDOF 8
REMARK  Name = ../refined-set-2016/1gvw/1gvw_pocket.pdb
REMARK  241 active torsions:
REMARK  status: ('A' for Active; 'I' for Inactive)
REMARK    1  A    between atoms: _1  and  _3
REMARK    2  A    between atoms: _3  and  _4
REMARK    3  A    between atoms: _3  and  _6
REMARK    4  A    between atoms: _6  and  _7
REMARK    5  A    between atoms: _10  and  _12
REMARK    6  A    between atoms: _12  and  _13
REMARK    7  A    between atoms: _12  and  _15
REMARK    8  A    between atoms: _15  and  _16
REMARK    9  A    between atoms: _19  and  _21
REMARK   10  A    between atoms: _21  and  _22
REMARK   11  A    between atoms: _21  and  _24
REMARK   12  A    between atoms: _24  and  _25
REMARK   13  A    between atoms: _28  and  _30
REMARK   14  A    between atoms: _30  and  _31
REMARK   15  A    between atoms: _30  and  _33
REMARK   16  A    between atoms: _33  and  _34
REMARK   17  A    between atoms: _37  and  _39
REMARK   18  A    between atoms: _39  and  _40
REMARK   19  A    between atoms: _39  and  _42
REMARK   20  A    between atoms: _42  and  _43
REMARK   21  A    between atoms: _46  and  _48
REMARK   22  A    between atoms: _48  and  _49
REMARK   23  A    between atoms: _52  and  _54
REMARK   24  A    between atoms: _54  and  _55
REMARK   25  A    between atoms: _54  and  _57
REMARK   26  A    between atoms: _57  and  _58
REMARK   27  A    between atoms: _63  and  _64
REMARK   28  A    between atoms: _66  and  _68
REMARK   29  A    between atoms: _68  and  _69
REMARK   30  A    between atoms: _68  and  _71
REMARK   31  A    between atoms: _71  and  _72
REMARK   32  A    between atoms: _75  and  _77
REMARK   33  A    between atoms: _77  and  _78
REMARK   34  A    between atoms: _77  and  _80
REMARK   35  A    between atoms: _80  and  _81
REMARK   36  A    between atoms: _87  and  _89
REMARK   37  A    between atoms: _89  and  _90
REMARK   38  A    between atoms: _89  and  _92
REMARK   39  A    between atoms: _92  and  _93
REMARK   40  A    between atoms: _96  and  _98
REMARK   41  A    between atoms: _98  and  _99
REMARK   42  A    between atoms: _98  and  _101
REMARK   43  A    between atoms: _101  and  _102
REMARK   44  A    between atoms: _105  and  _107
REMARK   45  A    between atoms: _107  and  _108
REMARK   46  A    between atoms: _110  and  _112
REMARK   47  A    between atoms: _112  and  _113
REMARK   48  A    between atoms: _112  and  _115
REMARK   49  A    between atoms: _115  and  _116
REMARK   50  A    between atoms: _118  and  _120
REMARK   51  A    between atoms: _120  and  _121
REMARK   52  A    between atoms: _120  and  _123
REMARK   53  A    between atoms: _123  and  _124
REMARK   54  A    between atoms: _126  and  _128
REMARK   55  A    between atoms: _128  and  _129
REMARK   56  A    between atoms: _128  and  _131
REMARK   57  A    between atoms: _131  and  _132
REMARK   58  A    between atoms: _135  and  _137
REMARK   59  A    between atoms: _137  and  _138
REMARK   60  A    between atoms: _137  and  _140
REMARK   61  A    between atoms: _140  and  _141
REMARK   62  A    between atoms: _151  and  _153
REMARK   63  A    between atoms: _153  and  _154
REMARK   64  A    between atoms: _153  and  _156
REMARK   65  A    between atoms: _156  and  _157
REMARK   66  A    between atoms: _159  and  _161
REMARK   67  A    between atoms: _161  and  _162
REMARK   68  A    between atoms: _161  and  _164
REMARK   69  A    between atoms: _164  and  _165
REMARK   70  A    between atoms: _168  and  _170
REMARK   71  A    between atoms: _170  and  _171
REMARK   72  A    between atoms: _170  and  _173
REMARK   73  A    between atoms: _173  and  _174
REMARK   74  A    between atoms: _176  and  _178
REMARK   75  A    between atoms: _178  and  _179
REMARK   76  A    between atoms: _178  and  _181
REMARK   77  A    between atoms: _181  and  _182
REMARK   78  A    between atoms: _187  and  _188
REMARK   79  A    between atoms: _190  and  _192
REMARK   80  A    between atoms: _192  and  _193
REMARK   81  A    between atoms: _195  and  _197
REMARK   82  A    between atoms: _197  and  _198
REMARK   83  A    between atoms: _197  and  _200
REMARK   84  A    between atoms: _200  and  _201
REMARK   85  A    between atoms: _204  and  _206
REMARK   86  A    between atoms: _206  and  _207
REMARK   87  A    between atoms: _209  and  _211
REMARK   88  A    between atoms: _211  and  _212
REMARK   89  A    between atoms: _211  and  _214
REMARK   90  A    between atoms: _214  and  _215
REMARK   91  A    between atoms: _217  and  _219
REMARK   92  A    between atoms: _219  and  _220
REMARK   93  A    between atoms: _219  and  _222
REMARK   94  A    between atoms: _222  and  _223
REMARK   95  A    between atoms: _225  and  _227
REMARK   96  A    between atoms: _227  and  _228
REMARK   97  A    between atoms: _227  and  _230
REMARK   98  A    between atoms: _230  and  _231
REMARK   99  A    between atoms: _233  and  _235
REMARK  100  A    between atoms: _235  and  _236
REMARK  101  A    between atoms: _235  and  _238
REMARK  102  A    between atoms: _238  and  _239
REMARK  103  A    between atoms: _245  and  _247
REMARK  104  A    between atoms: _247  and  _248
REMARK  105  A    between atoms: _247  and  _250
REMARK  106  A    between atoms: _250  and  _251
REMARK  107  A    between atoms: _254  and  _256
REMARK  108  A    between atoms: _256  and  _257
REMARK  109  A    between atoms: _256  and  _259
REMARK  110  A    between atoms: _259  and  _260
REMARK  111  A    between atoms: _263  and  _265
REMARK  112  A    between atoms: _265  and  _266
REMARK  113  A    between atoms: _265  and  _268
REMARK  114  A    between atoms: _268  and  _269
REMARK  115  A    between atoms: _272  and  _274
REMARK  116  A    between atoms: _274  and  _275
REMARK  117  A    between atoms: _277  and  _279
REMARK  118  A    between atoms: _279  and  _280
REMARK  119  A    between atoms: _279  and  _282
REMARK  120  A    between atoms: _282  and  _283
REMARK  121  A    between atoms: _286  and  _288
REMARK  122  A    between atoms: _288  and  _289
REMARK  123  A    between atoms: _288  and  _291
REMARK  124  A    between atoms: _291  and  _292
REMARK  125  A    between atoms: _295  and  _297
REMARK  126  A    between atoms: _297  and  _298
REMARK  127  A    between atoms: _300  and  _302
REMARK  128  A    between atoms: _302  and  _303
REMARK  129  A    between atoms: _302  and  _305
REMARK  130  A    between atoms: _305  and  _306
REMARK  131  A    between atoms: _309  and  _311
REMARK  132  A    between atoms: _311  and  _312
REMARK  133  A    between atoms: _315  and  _317
REMARK  134  A    between atoms: _317  and  _318
REMARK  135  A    between atoms: _317  and  _320
REMARK  136  A    between atoms: _320  and  _321
REMARK  137  A    between atoms: _327  and  _329
REMARK  138  A    between atoms: _329  and  _330
REMARK  139  A    between atoms: _329  and  _332
REMARK  140  A    between atoms: _332  and  _333
REMARK  141  A    between atoms: _336  and  _338
REMARK  142  A    between atoms: _338  and  _339
REMARK  143  A    between atoms: _338  and  _341
REMARK  144  A    between atoms: _341  and  _342
REMARK  145  A    between atoms: _345  and  _347
REMARK  146  A    between atoms: _347  and  _348
REMARK  147  A    between atoms: _347  and  _350
REMARK  148  A    between atoms: _350  and  _351
REMARK  149  A    between atoms: _356  and  _358
REMARK  150  A    between atoms: _358  and  _359
REMARK  151  A    between atoms: _358  and  _361
REMARK  152  A    between atoms: _361  and  _362
REMARK  153  A    between atoms: _365  and  _367
REMARK  154  A    between atoms: _367  and  _368
REMARK  155  A    between atoms: _367  and  _370
REMARK  156  A    between atoms: _370  and  _371
REMARK  157  A    between atoms: _371  and  _372
REMARK  158  A    between atoms: _377  and  _379
REMARK  159  A    between atoms: _379  and  _380
REMARK  160  A    between atoms: _382  and  _384
REMARK  161  A    between atoms: _384  and  _385
REMARK  162  A    between atoms: _384  and  _387
REMARK  163  A    between atoms: _387  and  _388
REMARK  164  A    between atoms: _394  and  _396
REMARK  165  A    between atoms: _396  and  _397
REMARK  166  A    between atoms: _396  and  _399
REMARK  167  A    between atoms: _399  and  _400
REMARK  168  A    between atoms: _403  and  _405
REMARK  169  A    between atoms: _405  and  _406
REMARK  170  A    between atoms: _409  and  _411
REMARK  171  A    between atoms: _411  and  _412
REMARK  172  A    between atoms: _411  and  _414
REMARK  173  A    between atoms: _414  and  _415
REMARK  174  A    between atoms: _418  and  _420
REMARK  175  A    between atoms: _420  and  _421
REMARK  176  A    between atoms: _420  and  _423
REMARK  177  A    between atoms: _423  and  _424
REMARK  178  A    between atoms: _427  and  _429
REMARK  179  A    between atoms: _429  and  _430
REMARK  180  A    between atoms: _432  and  _434
REMARK  181  A    between atoms: _434  and  _435
REMARK  182  A    between atoms: _434  and  _437
REMARK  183  A    between atoms: _437  and  _438
REMARK  184  A    between atoms: _441  and  _443
REMARK  185  A    between atoms: _443  and  _444
REMARK  186  A    between atoms: _443  and  _446
REMARK  187  A    between atoms: _446  and  _447
REMARK  188  A    between atoms: _450  and  _452
REMARK  189  A    between atoms: _452  and  _453
REMARK  190  A    between atoms: _452  and  _455
REMARK  191  A    between atoms: _455  and  _456
REMARK  192  A    between atoms: _459  and  _461
REMARK  193  A    between atoms: _461  and  _462
REMARK  194  A    between atoms: _461  and  _464
REMARK  195  A    between atoms: _464  and  _465
REMARK  196  A    between atoms: _470  and  _471
REMARK  197  A    between atoms: _473  and  _475
REMARK  198  A    between atoms: _475  and  _476
REMARK  199  A    between atoms: _478  and  _480
REMARK  200  A    between atoms: _480  and  _481
REMARK  201  A    between atoms: _480  and  _483
REMARK  202  A    between atoms: _483  and  _484
REMARK  203  A    between atoms: _490  and  _492
REMARK  204  A    between atoms: _492  and  _493
REMARK  205  A    between atoms: _492  and  _495
REMARK  206  A    between atoms: _495  and  _496
REMARK  207  A    between atoms: _502  and  _504
REMARK  208  A    between atoms: _504  and  _505
REMARK  209  A    between atoms: _507  and  _509
REMARK  210  A    between atoms: _509  and  _510
REMARK  211  A    between atoms: _512  and  _514
REMARK  212  A    between atoms: _514  and  _515
REMARK  213  A    between atoms: _514  and  _517
REMARK  214  A    between atoms: _517  and  _518
REMARK  215  A    between atoms: _518  and  _519
REMARK  216  A    between atoms: _524  and  _526
REMARK  217  A    between atoms: _526  and  _527
REMARK  218  A    between atoms: _529  and  _531
REMARK  219  A    between atoms: _531  and  _532
REMARK  220  A    between atoms: _531  and  _534
REMARK  221  A    between atoms: _534  and  _535
REMARK  222  A    between atoms: _538  and  _540
REMARK  223  A    between atoms: _540  and  _541
REMARK  224  A    between atoms: _543  and  _545
REMARK  225  A    between atoms: _545  and  _546
REMARK  226  A    between atoms: _545  and  _548
REMARK  227  A    between atoms: _548  and  _549
REMARK  228  A    between atoms: _552  and  _554
REMARK  229  A    between atoms: _554  and  _555
REMARK  230  A    between atoms: _554  and  _557
REMARK  231  A    between atoms: _557  and  _558
REMARK  232  A    between atoms: _563  and  _565
REMARK  233  A    between atoms: _565  and  _566
REMARK  234  A    between atoms: _565  and  _568
REMARK  235  A    between atoms: _568  and  _569
REMARK  236  A    between atoms: _572  and  _574
REMARK  237  A    between atoms: _574  and  _575
REMARK  238  A    between atoms: _577  and  _579
REMARK  239  A    between atoms: _579  and  _580
REMARK  240  A    between atoms: _579  and  _582
REMARK  241  A    between atoms: _582  and  _583
REMARK                            x       y       z     vdW  Elec       q    Type
REMARK                         _______ _______ _______ _____ _____    ______ ____
ROOT
ATOM      1  CA  ASP A   3       7.642  22.603  19.092  0.00  0.00    +0.160 C 
ENDROOT
BRANCH   1   2
ATOM      2  C   ASP A   3       8.181  23.743  18.208  0.00  0.00    +0.241 C 
ATOM      3  N   ALA A   4       9.522  23.779  18.028  0.00  0.00    -0.297 N 
ATOM      4  H   ALA A   4      10.093  23.047  18.497  0.00  0.00    +0.150 HD
ATOM      5  O   ASP A   3       7.403  24.584  17.725  0.00  0.00    -0.273 OA
BRANCH   3   6
ATOM      6  CA  ALA A   4      10.226  24.780  17.216  0.00  0.00    +0.149 C 
ATOM      7  CB  ALA A   4      10.316  26.146  17.918  0.00  0.00    +0.031 C 
BRANCH   6   8
ATOM      8  C   ALA A   4      11.623  24.260  16.885  0.00  0.00    +0.241 C 
ATOM      9  O   ALA A   4      12.067  23.241  17.449  0.00  0.00    -0.273 OA
ATOM     10  N   TYR A   5      12.334  24.960  15.987  0.00  0.00    -0.298 N 
ATOM     11  H   TYR A   5      11.912  25.831  15.606  0.00  0.00    +0.150 HD
BRANCH  10  12
ATOM     12  CA  TYR A   5      13.677  24.574  15.504  0.00  0.00    +0.141 C 
BRANCH  12  13
ATOM     13  C   TYR A   5      14.641  25.763  15.720  0.00  0.00    +0.227 C 
ATOM     14  O   TYR A   5      14.225  26.930  15.435  0.00  0.00    -0.286 OA
ENDBRANCH  12  13
BRANCH  12  15
ATOM     15  CB  TYR A   5      13.611  24.189  13.991  0.00  0.00    +0.054 C 
BRANCH  15  16
ATOM     16  CG  TYR A   5      12.758  22.952  13.739  0.00  0.00    -0.020 A 
ATOM     17  CD2 TYR A   5      11.356  22.974  13.707  0.00  0.00    -0.001 A 
ATOM     18  CE2 TYR A   5      10.564  21.858  13.494  0.00  0.00    +0.036 A 
ATOM     19  CZ  TYR A   5      11.186  20.631  13.291  0.00  0.00    +0.134 A 
ATOM     20  CE1 TYR A   5      12.575  20.541  13.302  0.00  0.00    +0.036 A 
ATOM     21  CD1 TYR A   5      13.361  21.687  13.527  0.00  0.00    -0.001 A 
BRANCH  19  22
ATOM     22  OH  TYR A   5      10.376  19.494  13.042  0.00  0.00    -0.506 OA
ATOM     23  HH  TYR A   5      10.588  19.129  12.147  0.00  0.00    +0.292 HD
ENDBRANCH  19  22
ENDBRANCH  15  16
ENDBRANCH  12  15
ENDBRANCH  10  12
ENDBRANCH   6   8
ENDBRANCH   3   6
ENDBRANCH   1   2
BRANCH   1  25
ATOM     24  C   ASP A   2       8.446  20.708  17.764  0.00  0.00    +0.241 C 
ATOM     25  N   ASP A   3       8.434  21.368  18.957  0.00  0.00    -0.297 N 
ATOM     26  H   ASP A   3       8.979  21.003  19.764  0.00  0.00    +0.150 HD
ATOM     27  O   ASP A   2       7.885  21.199  16.783  0.00  0.00    -0.273 OA
BRANCH  24  28
ATOM     28  CA  ASP A   2       9.269  19.420  17.634  0.00  0.00    +0.160 C 
BRANCH  28  30
ATOM     29  C   LEU A   1       7.876  18.143  19.184  0.00  0.00    +0.238 C 
ATOM     30  N   ASP A   2       9.104  18.578  18.817  0.00  0.00    -0.297 N 
ATOM     31  H   ASP A   2       9.936  18.311  19.381  0.00  0.00    +0.150 HD
ATOM     32  O   LEU A   1       6.853  18.380  18.520  0.00  0.00    -0.274 OA
BRANCH  29  33
ATOM     33  CA  LEU A   1       7.703  17.400  20.528  0.00  0.00    +0.145 C 
BRANCH  33  34
ATOM     34  N   LEU A   1       8.952  17.277  21.301  0.00  0.00    -0.238 NA
ATOM     35  H   LEU A   1       9.279  18.090  21.861  0.00  0.00    +0.142 HD
ENDBRANCH  33  34
BRANCH  33  36
ATOM     36  CB  LEU A   1       6.595  18.099  21.303  0.00  0.00    +0.026 C 
BRANCH  36  37
ATOM     37  CG  LEU A   1       6.178  17.521  22.643  0.00  0.00    +0.002 C 
ATOM     38  CD2 LEU A   1       5.034  18.337  23.221  0.00  0.00    +0.000 C 
ATOM     39  CD1 LEU A   1       5.751  16.056  22.533  0.00  0.00    +0.000 C 
ENDBRANCH  36  37
ENDBRANCH  33  36
ENDBRANCH  29  33
ENDBRANCH  28  30
BRANCH  28  40
ATOM     40  CB  ASP A   2       8.942  18.698  16.350  0.00  0.00    +0.143 C 
BRANCH  40  41
ATOM     41  CG  ASP A   2       9.880  17.612  15.907  0.00  0.00    +0.367 C 
ATOM     42  OD2 ASP A   2      10.963  17.426  16.479  0.00  0.00    -0.246 OA
ATOM     43  OD1 ASP A   2       9.530  16.897  14.935  0.00  0.00    -0.246 OA
ENDBRANCH  40  41
ENDBRANCH  28  40
ENDBRANCH  24  28
ENDBRANCH   1  25
BRANCH   1  44
ATOM     44  CB  ASP A   3       7.637  23.072  20.582  0.00  0.00    +0.143 C 
BRANCH  44  45
ATOM     45  CG  ASP A   3       6.599  22.420  21.453  0.00  0.00    +0.367 C 
ATOM     46  OD2 ASP A   3       6.890  21.794  22.509  0.00  0.00    -0.246 OA
ATOM     47  OD1 ASP A   3       5.413  22.574  21.149  0.00  0.00    -0.246 OA
ENDBRANCH  44  45
ENDBRANCH   1  44
TORSDOF 19
REMARK  Name = ../refined-set-2016/1gvw/1gvw_pocket.pdb
REMARK  241 active torsions:
REMARK  status: ('A' for Active; 'I' for Inactive)
REMARK    1  A    between atoms: _1  and  _3
REMARK    2  A    between atoms: _3  and  _4
REMARK    3  A    between atoms: _3  and  _6
REMARK    4  A    between atoms: _6  and  _7
REMARK    5  A    between atoms: _10  and  _12
REMARK    6  A    between atoms: _12  and  _13
REMARK    7  A    between atoms: _12  and  _15
REMARK    8  A    between atoms: _15  and  _16
REMARK    9  A    between atoms: _19  and  _21
REMARK   10  A    between atoms: _21  and  _22
REMARK   11  A    between atoms: _21  and  _24
REMARK   12  A    between atoms: _24  and  _25
REMARK   13  A    between atoms: _28  and  _30
REMARK   14  A    between atoms: _30  and  _31
REMARK   15  A    between atoms: _30  and  _33
REMARK   16  A    between atoms: _33  and  _34
REMARK   17  A    between atoms: _37  and  _39
REMARK   18  A    between atoms: _39  and  _40
REMARK   19  A    between atoms: _39  and  _42
REMARK   20  A    between atoms: _42  and  _43
REMARK   21  A    between atoms: _46  and  _48
REMARK   22  A    between atoms: _48  and  _49
REMARK   23  A    between atoms: _52  and  _54
REMARK   24  A    between atoms: _54  and  _55
REMARK   25  A    between atoms: _54  and  _57
REMARK   26  A    between atoms: _57  and  _58
REMARK   27  A    between atoms: _63  and  _64
REMARK   28  A    between atoms: _66  and  _68
REMARK   29  A    between atoms: _68  and  _69
REMARK   30  A    between atoms: _68  and  _71
REMARK   31  A    between atoms: _71  and  _72
REMARK   32  A    between atoms: _75  and  _77
REMARK   33  A    between atoms: _77  and  _78
REMARK   34  A    between atoms: _77  and  _80
REMARK   35  A    between atoms: _80  and  _81
REMARK   36  A    between atoms: _87  and  _89
REMARK   37  A    between atoms: _89  and  _90
REMARK   38  A    between atoms: _89  and  _92
REMARK   39  A    between atoms: _92  and  _93
REMARK   40  A    between atoms: _96  and  _98
REMARK   41  A    between atoms: _98  and  _99
REMARK   42  A    between atoms: _98  and  _101
REMARK   43  A    between atoms: _101  and  _102
REMARK   44  A    between atoms: _105  and  _107
REMARK   45  A    between atoms: _107  and  _108
REMARK   46  A    between atoms: _110  and  _112
REMARK   47  A    between atoms: _112  and  _113
REMARK   48  A    between atoms: _112  and  _115
REMARK   49  A    between atoms: _115  and  _116
REMARK   50  A    between atoms: _118  and  _120
REMARK   51  A    between atoms: _120  and  _121
REMARK   52  A    between atoms: _120  and  _123
REMARK   53  A    between atoms: _123  and  _124
REMARK   54  A    between atoms: _126  and  _128
REMARK   55  A    between atoms: _128  and  _129
REMARK   56  A    between atoms: _128  and  _131
REMARK   57  A    between atoms: _131  and  _132
REMARK   58  A    between atoms: _135  and  _137
REMARK   59  A    between atoms: _137  and  _138
REMARK   60  A    between atoms: _137  and  _140
REMARK   61  A    between atoms: _140  and  _141
REMARK   62  A    between atoms: _151  and  _153
REMARK   63  A    between atoms: _153  and  _154
REMARK   64  A    between atoms: _153  and  _156
REMARK   65  A    between atoms: _156  and  _157
REMARK   66  A    between atoms: _159  and  _161
REMARK   67  A    between atoms: _161  and  _162
REMARK   68  A    between atoms: _161  and  _164
REMARK   69  A    between atoms: _164  and  _165
REMARK   70  A    between atoms: _168  and  _170
REMARK   71  A    between atoms: _170  and  _171
REMARK   72  A    between atoms: _170  and  _173
REMARK   73  A    between atoms: _173  and  _174
REMARK   74  A    between atoms: _176  and  _178
REMARK   75  A    between atoms: _178  and  _179
REMARK   76  A    between atoms: _178  and  _181
REMARK   77  A    between atoms: _181  and  _182
REMARK   78  A    between atoms: _187  and  _188
REMARK   79  A    between atoms: _190  and  _192
REMARK   80  A    between atoms: _192  and  _193
REMARK   81  A    between atoms: _195  and  _197
REMARK   82  A    between atoms: _197  and  _198
REMARK   83  A    between atoms: _197  and  _200
REMARK   84  A    between atoms: _200  and  _201
REMARK   85  A    between atoms: _204  and  _206
REMARK   86  A    between atoms: _206  and  _207
REMARK   87  A    between atoms: _209  and  _211
REMARK   88  A    between atoms: _211  and  _212
REMARK   89  A    between atoms: _211  and  _214
REMARK   90  A    between atoms: _214  and  _215
REMARK   91  A    between atoms: _217  and  _219
REMARK   92  A    between atoms: _219  and  _220
REMARK   93  A    between atoms: _219  and  _222
REMARK   94  A    between atoms: _222  and  _223
REMARK   95  A    between atoms: _225  and  _227
REMARK   96  A    between atoms: _227  and  _228
REMARK   97  A    between atoms: _227  and  _230
REMARK   98  A    between atoms: _230  and  _231
REMARK   99  A    between atoms: _233  and  _235
REMARK  100  A    between atoms: _235  and  _236
REMARK  101  A    between atoms: _235  and  _238
REMARK  102  A    between atoms: _238  and  _239
REMARK  103  A    between atoms: _245  and  _247
REMARK  104  A    between atoms: _247  and  _248
REMARK  105  A    between atoms: _247  and  _250
REMARK  106  A    between atoms: _250  and  _251
REMARK  107  A    between atoms: _254  and  _256
REMARK  108  A    between atoms: _256  and  _257
REMARK  109  A    between atoms: _256  and  _259
REMARK  110  A    between atoms: _259  and  _260
REMARK  111  A    between atoms: _263  and  _265
REMARK  112  A    between atoms: _265  and  _266
REMARK  113  A    between atoms: _265  and  _268
REMARK  114  A    between atoms: _268  and  _269
REMARK  115  A    between atoms: _272  and  _274
REMARK  116  A    between atoms: _274  and  _275
REMARK  117  A    between atoms: _277  and  _279
REMARK  118  A    between atoms: _279  and  _280
REMARK  119  A    between atoms: _279  and  _282
REMARK  120  A    between atoms: _282  and  _283
REMARK  121  A    between atoms: _286  and  _288
REMARK  122  A    between atoms: _288  and  _289
REMARK  123  A    between atoms: _288  and  _291
REMARK  124  A    between atoms: _291  and  _292
REMARK  125  A    between atoms: _295  and  _297
REMARK  126  A    between atoms: _297  and  _298
REMARK  127  A    between atoms: _300  and  _302
REMARK  128  A    between atoms: _302  and  _303
REMARK  129  A    between atoms: _302  and  _305
REMARK  130  A    between atoms: _305  and  _306
REMARK  131  A    between atoms: _309  and  _311
REMARK  132  A    between atoms: _311  and  _312
REMARK  133  A    between atoms: _315  and  _317
REMARK  134  A    between atoms: _317  and  _318
REMARK  135  A    between atoms: _317  and  _320
REMARK  136  A    between atoms: _320  and  _321
REMARK  137  A    between atoms: _327  and  _329
REMARK  138  A    between atoms: _329  and  _330
REMARK  139  A    between atoms: _329  and  _332
REMARK  140  A    between atoms: _332  and  _333
REMARK  141  A    between atoms: _336  and  _338
REMARK  142  A    between atoms: _338  and  _339
REMARK  143  A    between atoms: _338  and  _341
REMARK  144  A    between atoms: _341  and  _342
REMARK  145  A    between atoms: _345  and  _347
REMARK  146  A    between atoms: _347  and  _348
REMARK  147  A    between atoms: _347  and  _350
REMARK  148  A    between atoms: _350  and  _351
REMARK  149  A    between atoms: _356  and  _358
REMARK  150  A    between atoms: _358  and  _359
REMARK  151  A    between atoms: _358  and  _361
REMARK  152  A    between atoms: _361  and  _362
REMARK  153  A    between atoms: _365  and  _367
REMARK  154  A    between atoms: _367  and  _368
REMARK  155  A    between atoms: _367  and  _370
REMARK  156  A    between atoms: _370  and  _371
REMARK  157  A    between atoms: _371  and  _372
REMARK  158  A    between atoms: _377  and  _379
REMARK  159  A    between atoms: _379  and  _380
REMARK  160  A    between atoms: _382  and  _384
REMARK  161  A    between atoms: _384  and  _385
REMARK  162  A    between atoms: _384  and  _387
REMARK  163  A    between atoms: _387  and  _388
REMARK  164  A    between atoms: _394  and  _396
REMARK  165  A    between atoms: _396  and  _397
REMARK  166  A    between atoms: _396  and  _399
REMARK  167  A    between atoms: _399  and  _400
REMARK  168  A    between atoms: _403  and  _405
REMARK  169  A    between atoms: _405  and  _406
REMARK  170  A    between atoms: _409  and  _411
REMARK  171  A    between atoms: _411  and  _412
REMARK  172  A    between atoms: _411  and  _414
REMARK  173  A    between atoms: _414  and  _415
REMARK  174  A    between atoms: _418  and  _420
REMARK  175  A    between atoms: _420  and  _421
REMARK  176  A    between atoms: _420  and  _423
REMARK  177  A    between atoms: _423  and  _424
REMARK  178  A    between atoms: _427  and  _429
REMARK  179  A    between atoms: _429  and  _430
REMARK  180  A    between atoms: _432  and  _434
REMARK  181  A    between atoms: _434  and  _435
REMARK  182  A    between atoms: _434  and  _437
REMARK  183  A    between atoms: _437  and  _438
REMARK  184  A    between atoms: _441  and  _443
REMARK  185  A    between atoms: _443  and  _444
REMARK  186  A    between atoms: _443  and  _446
REMARK  187  A    between atoms: _446  and  _447
REMARK  188  A    between atoms: _450  and  _452
REMARK  189  A    between atoms: _452  and  _453
REMARK  190  A    between atoms: _452  and  _455
REMARK  191  A    between atoms: _455  and  _456
REMARK  192  A    between atoms: _459  and  _461
REMARK  193  A    between atoms: _461  and  _462
REMARK  194  A    between atoms: _461  and  _464
REMARK  195  A    between atoms: _464  and  _465
REMARK  196  A    between atoms: _470  and  _471
REMARK  197  A    between atoms: _473  and  _475
REMARK  198  A    between atoms: _475  and  _476
REMARK  199  A    between atoms: _478  and  _480
REMARK  200  A    between atoms: _480  and  _481
REMARK  201  A    between atoms: _480  and  _483
REMARK  202  A    between atoms: _483  and  _484
REMARK  203  A    between atoms: _490  and  _492
REMARK  204  A    between atoms: _492  and  _493
REMARK  205  A    between atoms: _492  and  _495
REMARK  206  A    between atoms: _495  and  _496
REMARK  207  A    between atoms: _502  and  _504
REMARK  208  A    between atoms: _504  and  _505
REMARK  209  A    between atoms: _507  and  _509
REMARK  210  A    between atoms: _509  and  _510
REMARK  211  A    between atoms: _512  and  _514
REMARK  212  A    between atoms: _514  and  _515
REMARK  213  A    between atoms: _514  and  _517
REMARK  214  A    between atoms: _517  and  _518
REMARK  215  A    between atoms: _518  and  _519
REMARK  216  A    between atoms: _524  and  _526
REMARK  217  A    between atoms: _526  and  _527
REMARK  218  A    between atoms: _529  and  _531
REMARK  219  A    between atoms: _531  and  _532
REMARK  220  A    between atoms: _531  and  _534
REMARK  221  A    between atoms: _534  and  _535
REMARK  222  A    between atoms: _538  and  _540
REMARK  223  A    between atoms: _540  and  _541
REMARK  224  A    between atoms: _543  and  _545
REMARK  225  A    between atoms: _545  and  _546
REMARK  226  A    between atoms: _545  and  _548
REMARK  227  A    between atoms: _548  and  _549
REMARK  228  A    between atoms: _552  and  _554
REMARK  229  A    between atoms: _554  and  _555
REMARK  230  A    between atoms: _554  and  _557
REMARK  231  A    between atoms: _557  and  _558
REMARK  232  A    between atoms: _563  and  _565
REMARK  233  A    between atoms: _565  and  _566
REMARK  234  A    between atoms: _565  and  _568
REMARK  235  A    between atoms: _568  and  _569
REMARK  236  A    between atoms: _572  and  _574
REMARK  237  A    between atoms: _574  and  _575
REMARK  238  A    between atoms: _577  and  _579
REMARK  239  A    between atoms: _579  and  _580
REMARK  240  A    between atoms: _579  and  _582
REMARK  241  A    between atoms: _582  and  _583
REMARK                            x       y       z     vdW  Elec       q    Type
REMARK                         _______ _______ _______ _____ _____    ______ ____
ROOT
ATOM      1  CA  THR A   4       9.198  32.468   7.253  0.00  0.00    +0.176 C 
ENDROOT
BRANCH   1   2
ATOM      2  C   THR A   4       7.826  33.214   7.358  0.00  0.00    +0.243 C 
ATOM      3  N   GLY A   5       7.245  33.301   8.580  0.00  0.00    -0.295 N 
ATOM      4  H   GLY A   5       7.697  32.799   9.370  0.00  0.00    +0.150 HD
ATOM      5  O   THR A   4       7.340  33.707   6.306  0.00  0.00    -0.273 OA
BRANCH   3   6
ATOM      6  CA  GLY A   5       6.000  34.070   8.864  0.00  0.00    +0.176 C 
BRANCH   6   7
ATOM      7  C   GLY A   5       6.208  35.463   9.509  0.00  0.00    +0.243 C 
ATOM      8  O   GLY A   5       5.201  36.082   9.911  0.00  0.00    -0.273 OA
ATOM      9  N   SER A   6       7.461  35.942   9.622  0.00  0.00    -0.295 N 
ATOM     10  H   SER A   6       8.264  35.334   9.363  0.00  0.00    +0.150 HD
BRANCH   9  11
ATOM     11  CA  SER A   6       7.721  37.319  10.108  0.00  0.00    +0.178 C 
BRANCH  11  12
ATOM     12  C   SER A   6       9.037  37.827   9.475  0.00  0.00    +0.243 C 
ATOM     13  N   SER A   7       9.407  39.110   9.747  0.00  0.00    -0.295 N 
ATOM     14  H   SER A   7       8.939  39.627  10.519  0.00  0.00    +0.150 HD
ATOM     15  O   SER A   6       9.751  37.077   8.759  0.00  0.00    -0.273 OA
BRANCH  13  16
ATOM     16  CA  SER A   7      10.460  39.773   8.963  0.00  0.00    +0.178 C 
BRANCH  16  17
ATOM     17  C   SER A   7      11.437  40.612   9.811  0.00  0.00    +0.243 C 
ATOM     18  N   ASP A   8      11.564  40.285  11.124  0.00  0.00    -0.297 N 
ATOM     19  H   ASP A   8      10.968  39.520  11.501  0.00  0.00    +0.150 HD
ATOM     20  O   SER A   7      12.149  41.500   9.272  0.00  0.00    -0.273 OA
BRANCH  18  21
ATOM     21  CA  ASP A   8      12.511  40.964  12.051  0.00  0.00    +0.148 C 
BRANCH  21  22
ATOM     22  C   ASP A   8      13.600  39.950  12.503  0.00  0.00    +0.227 C 
ATOM     23  O   ASP A   8      13.282  38.802  12.841  0.00  0.00    -0.286 OA
ENDBRANCH  21  22
BRANCH  21  24
ATOM     24  CB  ASP A   8      11.774  41.529  13.309  0.00  0.00    +0.142 C 
BRANCH  24  25
ATOM     25  CG  ASP A   8      10.898  42.766  12.995  0.00  0.00    +0.367 C 
ATOM     26  OD2 ASP A   8      10.995  43.788  13.768  0.00  0.00    -0.246 OA
ATOM     27  OD1 ASP A   8      10.077  42.773  12.035  0.00  0.00    -0.246 OA
ENDBRANCH  24  25
ENDBRANCH  21  24
ENDBRANCH  18  21
ENDBRANCH  16  17
BRANCH  16  28
ATOM     28  CB  SER A   7       9.846  40.643   7.833  0.00  0.00    +0.166 C 
BRANCH  28  29
ATOM     29  OG  SER A   7       8.955  39.780   7.074  0.00  0.00    -0.380 OA
ATOM     30  H   SER A   7       8.541  40.299   6.340  0.00  0.00    +0.211 HD
ENDBRANCH  28  29
ENDBRANCH  16  28
ENDBRANCH  13  16
ENDBRANCH  11  12
BRANCH  11  31
ATOM     31  CB  SER A   6       7.765  37.420  11.654  0.00  0.00    +0.166 C 
BRANCH  31  32
ATOM     32  OG  SER A   6       8.969  36.758  12.157  0.00  0.00    -0.380 OA
ATOM     33  H   SER A   6       8.956  35.805  11.890  0.00  0.00    +0.211 HD
ENDBRANCH  31  32
ENDBRANCH  11  31
ENDBRANCH   9  11
ENDBRANCH   6   7
ENDBRANCH   3   6
ENDBRANCH   1   2
BRANCH   1  36
ATOM     34  C   ASP A   3      10.228  32.853   9.489  0.00  0.00    +0.241 C 
ATOM     35  O   ASP A   3      10.295  34.064   9.289  0.00  0.00    -0.273 OA
ATOM     36  N   THR A   4       9.721  31.973   8.532  0.00  0.00    -0.295 N 
ATOM     37  H   THR A   4       9.714  30.952   8.728  0.00  0.00    +0.150 HD
BRANCH  34  38
ATOM     38  CA  ASP A   3      10.692  32.208  10.809  0.00  0.00    +0.160 C 
BRANCH  38  41
ATOM     39  C   PHE A   2      12.767  30.907  11.203  0.00  0.00    +0.241 C 
ATOM     40  O   PHE A   2      12.119  29.825  11.254  0.00  0.00    -0.273 OA
ATOM     41  N   ASP A   3      12.185  32.068  10.848  0.00  0.00    -0.297 N 
ATOM     42  H   ASP A   3      12.781  32.882  10.596  0.00  0.00    +0.150 HD
BRANCH  39  43
ATOM     43  CA  PHE A   2      14.271  30.949  11.554  0.00  0.00    +0.153 C 
BRANCH  43  46
ATOM     44  C   ASP A   1      14.079  31.200  14.030  0.00  0.00    +0.239 C 
ATOM     45  O   ASP A   1      13.639  32.380  13.923  0.00  0.00    -0.274 OA
ATOM     46  N   PHE A   2      14.463  30.468  12.940  0.00  0.00    -0.297 N 
ATOM     47  H   PHE A   2      14.906  29.539  13.091  0.00  0.00    +0.150 HD
BRANCH  44  48
ATOM     48  CA  ASP A   1      14.305  30.585  15.406  0.00  0.00    +0.156 C 
BRANCH  48  49
ATOM     49  N   ASP A   1      15.490  31.231  16.075  0.00  0.00    -0.238 NA
ATOM     50  H   ASP A   1      15.305  32.029  16.716  0.00  0.00    +0.142 HD
ENDBRANCH  48  49
BRANCH  48  51
ATOM     51  CB  ASP A   1      13.079  30.726  16.338  0.00  0.00    +0.140 C 
BRANCH  51  52
ATOM     52  CG  ASP A   1      11.822  29.995  15.877  0.00  0.00    +0.367 C 
ATOM     53  OD2 ASP A   1      10.853  29.941  16.793  0.00  0.00    -0.246 OA
ATOM     54  OD1 ASP A   1      11.721  29.509  14.729  0.00  0.00    -0.246 OA
ENDBRANCH  51  52
ENDBRANCH  48  51
ENDBRANCH  44  48
ENDBRANCH  43  46
BRANCH  43  55
ATOM     55  CB  PHE A   2      15.096  30.113  10.538  0.00  0.00    +0.055 C 
BRANCH  55  56
ATOM     56  CG  PHE A   2      16.625  30.413  10.495  0.00  0.00    -0.020 A 
ATOM     57  CD2 PHE A   2      17.346  30.948  11.587  0.00  0.00    -0.004 A 
ATOM     58  CE2 PHE A   2      18.720  31.214  11.501  0.00  0.00    -0.000 A 
ATOM     59  CZ  PHE A   2      19.429  30.917  10.327  0.00  0.00    -0.000 A 
ATOM     60  CE1 PHE A   2      18.732  30.384   9.207  0.00  0.00    -0.000 A 
ATOM     61  CD1 PHE A   2      17.340  30.130   9.310  0.00  0.00    -0.004 A 
ENDBRANCH  55  56
ENDBRANCH  43  55
ENDBRANCH  39  43
ENDBRANCH  38  41
BRANCH  38  62
ATOM     62  CB  ASP A   3      10.249  33.096  11.984  0.00  0.00    +0.143 C 
BRANCH  62  63
ATOM     63  CG  ASP A   3       8.730  33.321  12.046  0.00  0.00    +0.367 C 
ATOM     64  OD2 ASP A   3       8.299  34.216  12.846  0.00  0.00    -0.246 OA
ATOM     65  OD1 ASP A   3       7.978  32.569  11.339  0.00  0.00    -0.246 OA
ENDBRANCH  62  63
ENDBRANCH  38  62
ENDBRANCH  34  38
ENDBRANCH   1  36
BRANCH   1  66
ATOM     66  CB  THR A   4       9.138  31.375   6.181  0.00  0.00    +0.137 C 
ATOM     67  CG2 THR A   4      10.541  30.707   5.949  0.00  0.00    +0.034 C 
BRANCH  66  68
ATOM     68  OG1 THR A   4       8.179  30.365   6.598  0.00  0.00    -0.382 OA
ATOM     69  HG1 THR A   4       7.287  30.782   6.704  0.00  0.00    +0.210 HD
ENDBRANCH  66  68
ENDBRANCH   1  66
TORSDOF 30
REMARK  Name = ../refined-set-2016/1gvw/1gvw_pocket.pdb
REMARK  241 active torsions:
REMARK  status: ('A' for Active; 'I' for Inactive)
REMARK    1  A    between atoms: _1  and  _3
REMARK    2  A    between atoms: _3  and  _4
REMARK    3  A    between atoms: _3  and  _6
REMARK    4  A    between atoms: _6  and  _7
REMARK    5  A    between atoms: _10  and  _12
REMARK    6  A    between atoms: _12  and  _13
REMARK    7  A    between atoms: _12  and  _15
REMARK    8  A    between atoms: _15  and  _16
REMARK    9  A    between atoms: _19  and  _21
REMARK   10  A    between atoms: _21  and  _22
REMARK   11  A    between atoms: _21  and  _24
REMARK   12  A    between atoms: _24  and  _25
REMARK   13  A    between atoms: _28  and  _30
REMARK   14  A    between atoms: _30  and  _31
REMARK   15  A    between atoms: _30  and  _33
REMARK   16  A    between atoms: _33  and  _34
REMARK   17  A    between atoms: _37  and  _39
REMARK   18  A    between atoms: _39  and  _40
REMARK   19  A    between atoms: _39  and  _42
REMARK   20  A    between atoms: _42  and  _43
REMARK   21  A    between atoms: _46  and  _48
REMARK   22  A    between atoms: _48  and  _49
REMARK   23  A    between atoms: _52  and  _54
REMARK   24  A    between atoms: _54  and  _55
REMARK   25  A    between atoms: _54  and  _57
REMARK   26  A    between atoms: _57  and  _58
REMARK   27  A    between atoms: _63  and  _64
REMARK   28  A    between atoms: _66  and  _68
REMARK   29  A    between atoms: _68  and  _69
REMARK   30  A    between atoms: _68  and  _71
REMARK   31  A    between atoms: _71  and  _72
REMARK   32  A    between atoms: _75  and  _77
REMARK   33  A    between atoms: _77  and  _78
REMARK   34  A    between atoms: _77  and  _80
REMARK   35  A    between atoms: _80  and  _81
REMARK   36  A    between atoms: _87  and  _89
REMARK   37  A    between atoms: _89  and  _90
REMARK   38  A    between atoms: _89  and  _92
REMARK   39  A    between atoms: _92  and  _93
REMARK   40  A    between atoms: _96  and  _98
REMARK   41  A    between atoms: _98  and  _99
REMARK   42  A    between atoms: _98  and  _101
REMARK   43  A    between atoms: _101  and  _102
REMARK   44  A    between atoms: _105  and  _107
REMARK   45  A    between atoms: _107  and  _108
REMARK   46  A    between atoms: _110  and  _112
REMARK   47  A    between atoms: _112  and  _113
REMARK   48  A    between atoms: _112  and  _115
REMARK   49  A    between atoms: _115  and  _116
REMARK   50  A    between atoms: _118  and  _120
REMARK   51  A    between atoms: _120  and  _121
REMARK   52  A    between atoms: _120  and  _123
REMARK   53  A    between atoms: _123  and  _124
REMARK   54  A    between atoms: _126  and  _128
REMARK   55  A    between atoms: _128  and  _129
REMARK   56  A    between atoms: _128  and  _131
REMARK   57  A    between atoms: _131  and  _132
REMARK   58  A    between atoms: _135  and  _137
REMARK   59  A    between atoms: _137  and  _138
REMARK   60  A    between atoms: _137  and  _140
REMARK   61  A    between atoms: _140  and  _141
REMARK   62  A    between atoms: _151  and  _153
REMARK   63  A    between atoms: _153  and  _154
REMARK   64  A    between atoms: _153  and  _156
REMARK   65  A    between atoms: _156  and  _157
REMARK   66  A    between atoms: _159  and  _161
REMARK   67  A    between atoms: _161  and  _162
REMARK   68  A    between atoms: _161  and  _164
REMARK   69  A    between atoms: _164  and  _165
REMARK   70  A    between atoms: _168  and  _170
REMARK   71  A    between atoms: _170  and  _171
REMARK   72  A    between atoms: _170  and  _173
REMARK   73  A    between atoms: _173  and  _174
REMARK   74  A    between atoms: _176  and  _178
REMARK   75  A    between atoms: _178  and  _179
REMARK   76  A    between atoms: _178  and  _181
REMARK   77  A    between atoms: _181  and  _182
REMARK   78  A    between atoms: _187  and  _188
REMARK   79  A    between atoms: _190  and  _192
REMARK   80  A    between atoms: _192  and  _193
REMARK   81  A    between atoms: _195  and  _197
REMARK   82  A    between atoms: _197  and  _198
REMARK   83  A    between atoms: _197  and  _200
REMARK   84  A    between atoms: _200  and  _201
REMARK   85  A    between atoms: _204  and  _206
REMARK   86  A    between atoms: _206  and  _207
REMARK   87  A    between atoms: _209  and  _211
REMARK   88  A    between atoms: _211  and  _212
REMARK   89  A    between atoms: _211  and  _214
REMARK   90  A    between atoms: _214  and  _215
REMARK   91  A    between atoms: _217  and  _219
REMARK   92  A    between atoms: _219  and  _220
REMARK   93  A    between atoms: _219  and  _222
REMARK   94  A    between atoms: _222  and  _223
REMARK   95  A    between atoms: _225  and  _227
REMARK   96  A    between atoms: _227  and  _228
REMARK   97  A    between atoms: _227  and  _230
REMARK   98  A    between atoms: _230  and  _231
REMARK   99  A    between atoms: _233  and  _235
REMARK  100  A    between atoms: _235  and  _236
REMARK  101  A    between atoms: _235  and  _238
REMARK  102  A    between atoms: _238  and  _239
REMARK  103  A    between atoms: _245  and  _247
REMARK  104  A    between atoms: _247  and  _248
REMARK  105  A    between atoms: _247  and  _250
REMARK  106  A    between atoms: _250  and  _251
REMARK  107  A    between atoms: _254  and  _256
REMARK  108  A    between atoms: _256  and  _257
REMARK  109  A    between atoms: _256  and  _259
REMARK  110  A    between atoms: _259  and  _260
REMARK  111  A    between atoms: _263  and  _265
REMARK  112  A    between atoms: _265  and  _266
REMARK  113  A    between atoms: _265  and  _268
REMARK  114  A    between atoms: _268  and  _269
REMARK  115  A    between atoms: _272  and  _274
REMARK  116  A    between atoms: _274  and  _275
REMARK  117  A    between atoms: _277  and  _279
REMARK  118  A    between atoms: _279  and  _280
REMARK  119  A    between atoms: _279  and  _282
REMARK  120  A    between atoms: _282  and  _283
REMARK  121  A    between atoms: _286  and  _288
REMARK  122  A    between atoms: _288  and  _289
REMARK  123  A    between atoms: _288  and  _291
REMARK  124  A    between atoms: _291  and  _292
REMARK  125  A    between atoms: _295  and  _297
REMARK  126  A    between atoms: _297  and  _298
REMARK  127  A    between atoms: _300  and  _302
REMARK  128  A    between atoms: _302  and  _303
REMARK  129  A    between atoms: _302  and  _305
REMARK  130  A    between atoms: _305  and  _306
REMARK  131  A    between atoms: _309  and  _311
REMARK  132  A    between atoms: _311  and  _312
REMARK  133  A    between atoms: _315  and  _317
REMARK  134  A    between atoms: _317  and  _318
REMARK  135  A    between atoms: _317  and  _320
REMARK  136  A    between atoms: _320  and  _321
REMARK  137  A    between atoms: _327  and  _329
REMARK  138  A    between atoms: _329  and  _330
REMARK  139  A    between atoms: _329  and  _332
REMARK  140  A    between atoms: _332  and  _333
REMARK  141  A    between atoms: _336  and  _338
REMARK  142  A    between atoms: _338  and  _339
REMARK  143  A    between atoms: _338  and  _341
REMARK  144  A    between atoms: _341  and  _342
REMARK  145  A    between atoms: _345  and  _347
REMARK  146  A    between atoms: _347  and  _348
REMARK  147  A    between atoms: _347  and  _350
REMARK  148  A    between atoms: _350  and  _351
REMARK  149  A    between atoms: _356  and  _358
REMARK  150  A    between atoms: _358  and  _359
REMARK  151  A    between atoms: _358  and  _361
REMARK  152  A    between atoms: _361  and  _362
REMARK  153  A    between atoms: _365  and  _367
REMARK  154  A    between atoms: _367  and  _368
REMARK  155  A    between atoms: _367  and  _370
REMARK  156  A    between atoms: _370  and  _371
REMARK  157  A    between atoms: _371  and  _372
REMARK  158  A    between atoms: _377  and  _379
REMARK  159  A    between atoms: _379  and  _380
REMARK  160  A    between atoms: _382  and  _384
REMARK  161  A    between atoms: _384  and  _385
REMARK  162  A    between atoms: _384  and  _387
REMARK  163  A    between atoms: _387  and  _388
REMARK  164  A    between atoms: _394  and  _396
REMARK  165  A    between atoms: _396  and  _397
REMARK  166  A    between atoms: _396  and  _399
REMARK  167  A    between atoms: _399  and  _400
REMARK  168  A    between atoms: _403  and  _405
REMARK  169  A    between atoms: _405  and  _406
REMARK  170  A    between atoms: _409  and  _411
REMARK  171  A    between atoms: _411  and  _412
REMARK  172  A    between atoms: _411  and  _414
REMARK  173  A    between atoms: _414  and  _415
REMARK  174  A    between atoms: _418  and  _420
REMARK  175  A    between atoms: _420  and  _421
REMARK  176  A    between atoms: _420  and  _423
REMARK  177  A    between atoms: _423  and  _424
REMARK  178  A    between atoms: _427  and  _429
REMARK  179  A    between atoms: _429  and  _430
REMARK  180  A    between atoms: _432  and  _434
REMARK  181  A    between atoms: _434  and  _435
REMARK  182  A    between atoms: _434  and  _437
REMARK  183  A    between atoms: _437  and  _438
REMARK  184  A    between atoms: _441  and  _443
REMARK  185  A    between atoms: _443  and  _444
REMARK  186  A    between atoms: _443  and  _446
REMARK  187  A    between atoms: _446  and  _447
REMARK  188  A    between atoms: _450  and  _452
REMARK  189  A    between atoms: _452  and  _453
REMARK  190  A    between atoms: _452  and  _455
REMARK  191  A    between atoms: _455  and  _456
REMARK  192  A    between atoms: _459  and  _461
REMARK  193  A    between atoms: _461  and  _462
REMARK  194  A    between atoms: _461  and  _464
REMARK  195  A    between atoms: _464  and  _465
REMARK  196  A    between atoms: _470  and  _471
REMARK  197  A    between atoms: _473  and  _475
REMARK  198  A    between atoms: _475  and  _476
REMARK  199  A    between atoms: _478  and  _480
REMARK  200  A    between atoms: _480  and  _481
REMARK  201  A    between atoms: _480  and  _483
REMARK  202  A    between atoms: _483  and  _484
REMARK  203  A    between atoms: _490  and  _492
REMARK  204  A    between atoms: _492  and  _493
REMARK  205  A    between atoms: _492  and  _495
REMARK  206  A    between atoms: _495  and  _496
REMARK  207  A    between atoms: _502  and  _504
REMARK  208  A    between atoms: _504  and  _505
REMARK  209  A    between atoms: _507  and  _509
REMARK  210  A    between atoms: _509  and  _510
REMARK  211  A    between atoms: _512  and  _514
REMARK  212  A    between atoms: _514  and  _515
REMARK  213  A    between atoms: _514  and  _517
REMARK  214  A    between atoms: _517  and  _518
REMARK  215  A    between atoms: _518  and  _519
REMARK  216  A    between atoms: _524  and  _526
REMARK  217  A    between atoms: _526  and  _527
REMARK  218  A    between atoms: _529  and  _531
REMARK  219  A    between atoms: _531  and  _532
REMARK  220  A    between atoms: _531  and  _534
REMARK  221  A    between atoms: _534  and  _535
REMARK  222  A    between atoms: _538  and  _540
REMARK  223  A    between atoms: _540  and  _541
REMARK  224  A    between atoms: _543  and  _545
REMARK  225  A    between atoms: _545  and  _546
REMARK  226  A    between atoms: _545  and  _548
REMARK  227  A    between atoms: _548  and  _549
REMARK  228  A    between atoms: _552  and  _554
REMARK  229  A    between atoms: _554  and  _555
REMARK  230  A    between atoms: _554  and  _557
REMARK  231  A    between atoms: _557  and  _558
REMARK  232  A    between atoms: _563  and  _565
REMARK  233  A    between atoms: _565  and  _566
REMARK  234  A    between atoms: _565  and  _568
REMARK  235  A    between atoms: _568  and  _569
REMARK  236  A    between atoms: _572  and  _574
REMARK  237  A    between atoms: _574  and  _575
REMARK  238  A    between atoms: _577  and  _579
REMARK  239  A    between atoms: _579  and  _580
REMARK  240  A    between atoms: _579  and  _582
REMARK  241  A    between atoms: _582  and  _583
REMARK                            x       y       z     vdW  Elec       q    Type
REMARK                         _______ _______ _______ _____ _____    ______ ____
ROOT
ATOM      1  CG  TRP A   1      13.503  39.951  18.010  0.00  0.00    -0.002 A 
ATOM      2  CD2 TRP A   1      13.483  39.309  19.316  0.00  0.00    +0.013 A 
ATOM      3  CE3 TRP A   1      14.304  39.379  20.480  0.00  0.00    +0.001 A 
ATOM      4  CZ3 TRP A   1      13.993  38.597  21.586  0.00  0.00    +0.000 A 
ATOM      5  CH2 TRP A   1      12.847  37.739  21.595  0.00  0.00    +0.001 A 
ATOM      6  CZ2 TRP A   1      12.023  37.676  20.508  0.00  0.00    +0.017 A 
ATOM      7  CE2 TRP A   1      12.340  38.450  19.356  0.00  0.00    +0.056 A 
ATOM      8  NE1 TRP A   1      11.693  38.572  18.134  0.00  0.00    -0.352 N 
ATOM      9  HE1 TRP A   1      10.823  38.070  17.864  0.00  0.00    +0.166 HD
ATOM     10  CD1 TRP A   1      12.376  39.457  17.336  0.00  0.00    +0.068 A 
ENDROOT
BRANCH   1  11
ATOM     11  CB  TRP A   1      14.534  40.961  17.517  0.00  0.00    +0.053 C 
BRANCH  11  12
ATOM     12  CA  TRP A   1      15.884  40.411  16.959  0.00  0.00    +0.137 C 
BRANCH  12  13
ATOM     13  N   TRP A   1      15.759  39.791  15.597  0.00  0.00    -0.239 NA
ATOM     14  H   TRP A   1      15.285  38.872  15.490  0.00  0.00    +0.142 HD
ENDBRANCH  12  13
BRANCH  12  15
ATOM     15  C   TRP A   1      16.523  39.374  17.902  0.00  0.00    +0.224 C 
ATOM     16  O   TRP A   1      16.361  38.168  17.747  0.00  0.00    -0.287 OA
ENDBRANCH  12  15
ENDBRANCH  11  12
ENDBRANCH   1  11
TORSDOF 4
REMARK  Name = ../refined-set-2016/1gvw/1gvw_pocket.pdb
REMARK  241 active torsions:
REMARK  status: ('A' for Active; 'I' for Inactive)
REMARK    1  A    between atoms: _1  and  _3
REMARK    2  A    between atoms: _3  and  _4
REMARK    3  A    between atoms: _3  and  _6
REMARK    4  A    between atoms: _6  and  _7
REMARK    5  A    between atoms: _10  and  _12
REMARK    6  A    between atoms: _12  and  _13
REMARK    7  A    between atoms: _12  and  _15
REMARK    8  A    between atoms: _15  and  _16
REMARK    9  A    between atoms: _19  and  _21
REMARK   10  A    between atoms: _21  and  _22
REMARK   11  A    between atoms: _21  and  _24
REMARK   12  A    between atoms: _24  and  _25
REMARK   13  A    between atoms: _28  and  _30
REMARK   14  A    between atoms: _30  and  _31
REMARK   15  A    between atoms: _30  and  _33
REMARK   16  A    between atoms: _33  and  _34
REMARK   17  A    between atoms: _37  and  _39
REMARK   18  A    between atoms: _39  and  _40
REMARK   19  A    between atoms: _39  and  _42
REMARK   20  A    between atoms: _42  and  _43
REMARK   21  A    between atoms: _46  and  _48
REMARK   22  A    between atoms: _48  and  _49
REMARK   23  A    between atoms: _52  and  _54
REMARK   24  A    between atoms: _54  and  _55
REMARK   25  A    between atoms: _54  and  _57
REMARK   26  A    between atoms: _57  and  _58
REMARK   27  A    between atoms: _63  and  _64
REMARK   28  A    between atoms: _66  and  _68
REMARK   29  A    between atoms: _68  and  _69
REMARK   30  A    between atoms: _68  and  _71
REMARK   31  A    between atoms: _71  and  _72
REMARK   32  A    between atoms: _75  and  _77
REMARK   33  A    between atoms: _77  and  _78
REMARK   34  A    between atoms: _77  and  _80
REMARK   35  A    between atoms: _80  and  _81
REMARK   36  A    between atoms: _87  and  _89
REMARK   37  A    between atoms: _89  and  _90
REMARK   38  A    between atoms: _89  and  _92
REMARK   39  A    between atoms: _92  and  _93
REMARK   40  A    between atoms: _96  and  _98
REMARK   41  A    between atoms: _98  and  _99
REMARK   42  A    between atoms: _98  and  _101
REMARK   43  A    between atoms: _101  and  _102
REMARK   44  A    between atoms: _105  and  _107
REMARK   45  A    between atoms: _107  and  _108
REMARK   46  A    between atoms: _110  and  _112
REMARK   47  A    between atoms: _112  and  _113
REMARK   48  A    between atoms: _112  and  _115
REMARK   49  A    between atoms: _115  and  _116
REMARK   50  A    between atoms: _118  and  _120
REMARK   51  A    between atoms: _120  and  _121
REMARK   52  A    between atoms: _120  and  _123
REMARK   53  A    between atoms: _123  and  _124
REMARK   54  A    between atoms: _126  and  _128
REMARK   55  A    between atoms: _128  and  _129
REMARK   56  A    between atoms: _128  and  _131
REMARK   57  A    between atoms: _131  and  _132
REMARK   58  A    between atoms: _135  and  _137
REMARK   59  A    between atoms: _137  and  _138
REMARK   60  A    between atoms: _137  and  _140
REMARK   61  A    between atoms: _140  and  _141
REMARK   62  A    between atoms: _151  and  _153
REMARK   63  A    between atoms: _153  and  _154
REMARK   64  A    between atoms: _153  and  _156
REMARK   65  A    between atoms: _156  and  _157
REMARK   66  A    between atoms: _159  and  _161
REMARK   67  A    between atoms: _161  and  _162
REMARK   68  A    between atoms: _161  and  _164
REMARK   69  A    between atoms: _164  and  _165
REMARK   70  A    between atoms: _168  and  _170
REMARK   71  A    between atoms: _170  and  _171
REMARK   72  A    between atoms: _170  and  _173
REMARK   73  A    between atoms: _173  and  _174
REMARK   74  A    between atoms: _176  and  _178
REMARK   75  A    between atoms: _178  and  _179
REMARK   76  A    between atoms: _178  and  _181
REMARK   77  A    between atoms: _181  and  _182
REMARK   78  A    between atoms: _187  and  _188
REMARK   79  A    between atoms: _190  and  _192
REMARK   80  A    between atoms: _192  and  _193
REMARK   81  A    between atoms: _195  and  _197
REMARK   82  A    between atoms: _197  and  _198
REMARK   83  A    between atoms: _197  and  _200
REMARK   84  A    between atoms: _200  and  _201
REMARK   85  A    between atoms: _204  and  _206
REMARK   86  A    between atoms: _206  and  _207
REMARK   87  A    between atoms: _209  and  _211
REMARK   88  A    between atoms: _211  and  _212
REMARK   89  A    between atoms: _211  and  _214
REMARK   90  A    between atoms: _214  and  _215
REMARK   91  A    between atoms: _217  and  _219
REMARK   92  A    between atoms: _219  and  _220
REMARK   93  A    between atoms: _219  and  _222
REMARK   94  A    between atoms: _222  and  _223
REMARK   95  A    between atoms: _225  and  _227
REMARK   96  A    between atoms: _227  and  _228
REMARK   97  A    between atoms: _227  and  _230
REMARK   98  A    between atoms: _230  and  _231
REMARK   99  A    between atoms: _233  and  _235
REMARK  100  A    between atoms: _235  and  _236
REMARK  101  A    between atoms: _235  and  _238
REMARK  102  A    between atoms: _238  and  _239
REMARK  103  A    between atoms: _245  and  _247
REMARK  104  A    between atoms: _247  and  _248
REMARK  105  A    between atoms: _247  and  _250
REMARK  106  A    between atoms: _250  and  _251
REMARK  107  A    between atoms: _254  and  _256
REMARK  108  A    between atoms: _256  and  _257
REMARK  109  A    between atoms: _256  and  _259
REMARK  110  A    between atoms: _259  and  _260
REMARK  111  A    between atoms: _263  and  _265
REMARK  112  A    between atoms: _265  and  _266
REMARK  113  A    between atoms: _265  and  _268
REMARK  114  A    between atoms: _268  and  _269
REMARK  115  A    between atoms: _272  and  _274
REMARK  116  A    between atoms: _274  and  _275
REMARK  117  A    between atoms: _277  and  _279
REMARK  118  A    between atoms: _279  and  _280
REMARK  119  A    between atoms: _279  and  _282
REMARK  120  A    between atoms: _282  and  _283
REMARK  121  A    between atoms: _286  and  _288
REMARK  122  A    between atoms: _288  and  _289
REMARK  123  A    between atoms: _288  and  _291
REMARK  124  A    between atoms: _291  and  _292
REMARK  125  A    between atoms: _295  and  _297
REMARK  126  A    between atoms: _297  and  _298
REMARK  127  A    between atoms: _300  and  _302
REMARK  128  A    between atoms: _302  and  _303
REMARK  129  A    between atoms: _302  and  _305
REMARK  130  A    between atoms: _305  and  _306
REMARK  131  A    between atoms: _309  and  _311
REMARK  132  A    between atoms: _311  and  _312
REMARK  133  A    between atoms: _315  and  _317
REMARK  134  A    between atoms: _317  and  _318
REMARK  135  A    between atoms: _317  and  _320
REMARK  136  A    between atoms: _320  and  _321
REMARK  137  A    between atoms: _327  and  _329
REMARK  138  A    between atoms: _329  and  _330
REMARK  139  A    between atoms: _329  and  _332
REMARK  140  A    between atoms: _332  and  _333
REMARK  141  A    between atoms: _336  and  _338
REMARK  142  A    between atoms: _338  and  _339
REMARK  143  A    between atoms: _338  and  _341
REMARK  144  A    between atoms: _341  and  _342
REMARK  145  A    between atoms: _345  and  _347
REMARK  146  A    between atoms: _347  and  _348
REMARK  147  A    between atoms: _347  and  _350
REMARK  148  A    between atoms: _350  and  _351
REMARK  149  A    between atoms: _356  and  _358
REMARK  150  A    between atoms: _358  and  _359
REMARK  151  A    between atoms: _358  and  _361
REMARK  152  A    between atoms: _361  and  _362
REMARK  153  A    between atoms: _365  and  _367
REMARK  154  A    between atoms: _367  and  _368
REMARK  155  A    between atoms: _367  and  _370
REMARK  156  A    between atoms: _370  and  _371
REMARK  157  A    between atoms: _371  and  _372
REMARK  158  A    between atoms: _377  and  _379
REMARK  159  A    between atoms: _379  and  _380
REMARK  160  A    between atoms: _382  and  _384
REMARK  161  A    between atoms: _384  and  _385
REMARK  162  A    between atoms: _384  and  _387
REMARK  163  A    between atoms: _387  and  _388
REMARK  164  A    between atoms: _394  and  _396
REMARK  165  A    between atoms: _396  and  _397
REMARK  166  A    between atoms: _396  and  _399
REMARK  167  A    between atoms: _399  and  _400
REMARK  168  A    between atoms: _403  and  _405
REMARK  169  A    between atoms: _405  and  _406
REMARK  170  A    between atoms: _409  and  _411
REMARK  171  A    between atoms: _411  and  _412
REMARK  172  A    between atoms: _411  and  _414
REMARK  173  A    between atoms: _414  and  _415
REMARK  174  A    between atoms: _418  and  _420
REMARK  175  A    between atoms: _420  and  _421
REMARK  176  A    between atoms: _420  and  _423
REMARK  177  A    between atoms: _423  and  _424
REMARK  178  A    between atoms: _427  and  _429
REMARK  179  A    between atoms: _429  and  _430
REMARK  180  A    between atoms: _432  and  _434
REMARK  181  A    between atoms: _434  and  _435
REMARK  182  A    between atoms: _434  and  _437
REMARK  183  A    between atoms: _437  and  _438
REMARK  184  A    between atoms: _441  and  _443
REMARK  185  A    between atoms: _443  and  _444
REMARK  186  A    between atoms: _443  and  _446
REMARK  187  A    between atoms: _446  and  _447
REMARK  188  A    between atoms: _450  and  _452
REMARK  189  A    between atoms: _452  and  _453
REMARK  190  A    between atoms: _452  and  _455
REMARK  191  A    between atoms: _455  and  _456
REMARK  192  A    between atoms: _459  and  _461
REMARK  193  A    between atoms: _461  and  _462
REMARK  194  A    between atoms: _461  and  _464
REMARK  195  A    between atoms: _464  and  _465
REMARK  196  A    between atoms: _470  and  _471
REMARK  197  A    between atoms: _473  and  _475
REMARK  198  A    between atoms: _475  and  _476
REMARK  199  A    between atoms: _478  and  _480
REMARK  200  A    between atoms: _480  and  _481
REMARK  201  A    between atoms: _480  and  _483
REMARK  202  A    between atoms: _483  and  _484
REMARK  203  A    between atoms: _490  and  _492
REMARK  204  A    between atoms: _492  and  _493
REMARK  205  A    between atoms: _492  and  _495
REMARK  206  A    between atoms: _495  and  _496
REMARK  207  A    between atoms: _502  and  _504
REMARK  208  A    between atoms: _504  and  _505
REMARK  209  A    between atoms: _507  and  _509
REMARK  210  A    between atoms: _509  and  _510
REMARK  211  A    between atoms: _512  and  _514
REMARK  212  A    between atoms: _514  and  _515
REMARK  213  A    between atoms: _514  and  _517
REMARK  214  A    between atoms: _517  and  _518
REMARK  215  A    between atoms: _518  and  _519
REMARK  216  A    between atoms: _524  and  _526
REMARK  217  A    between atoms: _526  and  _527
REMARK  218  A    between atoms: _529  and  _531
REMARK  219  A    between atoms: _531  and  _532
REMARK  220  A    between atoms: _531  and  _534
REMARK  221  A    between atoms: _534  and  _535
REMARK  222  A    between atoms: _538  and  _540
REMARK  223  A    between atoms: _540  and  _541
REMARK  224  A    between atoms: _543  and  _545
REMARK  225  A    between atoms: _545  and  _546
REMARK  226  A    between atoms: _545  and  _548
REMARK  227  A    between atoms: _548  and  _549
REMARK  228  A    between atoms: _552  and  _554
REMARK  229  A    between atoms: _554  and  _555
REMARK  230  A    between atoms: _554  and  _557
REMARK  231  A    between atoms: _557  and  _558
REMARK  232  A    between atoms: _563  and  _565
REMARK  233  A    between atoms: _565  and  _566
REMARK  234  A    between atoms: _565  and  _568
REMARK  235  A    between atoms: _568  and  _569
REMARK  236  A    between atoms: _572  and  _574
REMARK  237  A    between atoms: _574  and  _575
REMARK  238  A    between atoms: _577  and  _579
REMARK  239  A    between atoms: _579  and  _580
REMARK  240  A    between atoms: _579  and  _582
REMARK  241  A    between atoms: _582  and  _583
REMARK                            x       y       z     vdW  Elec       q    Type
REMARK                         _______ _______ _______ _____ _____    ______ ____
ROOT
ATOM      1  CA  TYR A   4       2.808  37.459  17.295  0.00  0.00    +0.153 C 
ENDROOT
BRANCH   1   3
ATOM      2  C   SER A   3       3.194  39.874  17.488  0.00  0.00    +0.243 C 
ATOM      3  N   TYR A   4       3.021  38.674  18.084  0.00  0.00    -0.297 N 
ATOM      4  H   TYR A   4       3.039  38.612  19.122  0.00  0.00    +0.150 HD
ATOM      5  O   SER A   3       3.058  40.126  16.303  0.00  0.00    -0.273 OA
BRANCH   2   6
ATOM      6  CA  SER A   3       3.587  41.000  18.509  0.00  0.00    +0.178 C 
BRANCH   6   9
ATOM      7  C   ILE A   2       5.549  42.512  18.343  0.00  0.00    +0.241 C 
ATOM      8  O   ILE A   2       5.888  42.321  19.512  0.00  0.00    -0.273 OA
ATOM      9  N   SER A   3       4.420  41.995  17.785  0.00  0.00    -0.295 N 
ATOM     10  H   SER A   3       4.135  42.302  16.833  0.00  0.00    +0.150 HD
BRANCH   7  11
ATOM     11  CA  ILE A   2       6.440  43.313  17.359  0.00  0.00    +0.148 C 
BRANCH  11  13
ATOM     12  C   SER A   1       7.168  45.637  17.655  0.00  0.00    +0.241 C 
ATOM     13  N   ILE A   2       7.129  44.393  18.106  0.00  0.00    -0.297 N 
ATOM     14  H   ILE A   2       7.594  44.167  19.008  0.00  0.00    +0.150 HD
ATOM     15  O   SER A   1       6.584  46.015  16.614  0.00  0.00    -0.274 OA
BRANCH  12  16
ATOM     16  CA  SER A   1       8.035  46.672  18.452  0.00  0.00    +0.174 C 
BRANCH  16  17
ATOM     17  N   SER A   1       9.024  47.248  17.507  0.00  0.00    -0.236 NA
ATOM     18  H   SER A   1       8.862  47.150  16.484  0.00  0.00    +0.142 HD
ENDBRANCH  16  17
BRANCH  16  19
ATOM     19  CB  SER A   1       7.092  47.712  19.047  0.00  0.00    +0.163 C 
BRANCH  19  20
ATOM     20  OG  SER A   1       6.015  47.046  19.780  0.00  0.00    -0.380 OA
ATOM     21  H   SER A   1       5.509  46.461  19.162  0.00  0.00    +0.211 HD
ENDBRANCH  19  20
ENDBRANCH  16  19
ENDBRANCH  12  16
ENDBRANCH  11  13
BRANCH  11  22
ATOM     22  CB  ILE A   2       7.467  42.414  16.613  0.00  0.00    +0.027 C 
ATOM     23  CG2 ILE A   2       8.361  41.603  17.610  0.00  0.00    +0.002 C 
BRANCH  22  24
ATOM     24  CG1 ILE A   2       6.816  41.465  15.568  0.00  0.00    +0.002 C 
ATOM     25  CD1 ILE A   2       7.797  40.914  14.514  0.00  0.00    +0.000 C 
ENDBRANCH  22  24
ENDBRANCH  11  22
ENDBRANCH   7  11
ENDBRANCH   6   9
BRANCH   6  26
ATOM     26  CB  SER A   3       2.343  41.586  19.176  0.00  0.00    +0.166 C 
BRANCH  26  27
ATOM     27  OG  SER A   3       1.467  42.208  18.262  0.00  0.00    -0.380 OA
ATOM     28  H   SER A   3       1.940  42.948  17.805  0.00  0.00    +0.211 HD
ENDBRANCH  26  27
ENDBRANCH   6  26
ENDBRANCH   2   6
ENDBRANCH   1   3
BRANCH   1  29
ATOM     29  C   TYR A   4       1.391  36.898  17.581  0.00  0.00    +0.241 C 
ATOM     30  O   TYR A   4       0.659  37.300  18.496  0.00  0.00    -0.273 OA
ATOM     31  N   GLY A   5       0.998  35.897  16.736  0.00  0.00    -0.295 N 
ATOM     32  H   GLY A   5       1.652  35.513  16.024  0.00  0.00    +0.150 HD
BRANCH  31  33
ATOM     33  CA  GLY A   5      -0.403  35.365  16.862  0.00  0.00    +0.176 C 
BRANCH  33  34
ATOM     34  C   GLY A   5      -0.742  34.718  18.189  0.00  0.00    +0.243 C 
ATOM     35  N   ASP A   6       0.302  34.194  18.852  0.00  0.00    -0.296 N 
ATOM     36  H   ASP A   6       1.252  34.219  18.430  0.00  0.00    +0.150 HD
ATOM     37  O   GLY A   5      -1.944  34.647  18.592  0.00  0.00    -0.273 OA
BRANCH  35  38
ATOM     38  CA  ASP A   6       0.100  33.581  20.183  0.00  0.00    +0.160 C 
BRANCH  38  39
ATOM     39  C   ASP A   6       0.103  34.600  21.340  0.00  0.00    +0.241 C 
ATOM     40  O   ASP A   6      -0.004  34.183  22.513  0.00  0.00    -0.273 OA
ATOM     41  N   GLY A   7       0.191  35.912  20.995  0.00  0.00    -0.295 N 
ATOM     42  H   GLY A   7       0.300  36.146  19.988  0.00  0.00    +0.150 HD
BRANCH  41  43
ATOM     43  CA  GLY A   7       0.141  37.024  21.963  0.00  0.00    +0.176 C 
BRANCH  43  44
ATOM     44  C   GLY A   7       1.504  37.400  22.530  0.00  0.00    +0.243 C 
ATOM     45  O   GLY A   7       1.530  38.329  23.386  0.00  0.00    -0.273 OA
ATOM     46  N   SER A   8       2.621  36.769  22.152  0.00  0.00    -0.295 N 
ATOM     47  H   SER A   8       2.524  35.981  21.480  0.00  0.00    +0.150 HD
BRANCH  46  48
ATOM     48  CA  SER A   8       3.976  37.105  22.615  0.00  0.00    +0.178 C 
BRANCH  48  49
ATOM     49  C   SER A   8       4.431  38.413  21.941  0.00  0.00    +0.243 C 
ATOM     50  N   SER A   9       5.469  39.107  22.550  0.00  0.00    -0.300 N 
ATOM     51  H   SER A   9       5.940  38.689  23.378  0.00  0.00    +0.150 HD
ATOM     52  O   SER A   8       3.888  38.848  20.883  0.00  0.00    -0.273 OA
BRANCH  50  53
ATOM     53  CA  SER A   9       5.924  40.428  22.052  0.00  0.00    +0.134 C 
BRANCH  53  54
ATOM     54  CB  SER A   9       7.343  40.774  22.545  0.00  0.00    +0.204 C 
ATOM     55  OG  SER A   9       7.859  40.154  23.550  0.00  0.00    -0.218 OA
ENDBRANCH  53  54
BRANCH  53  56
ATOM     56  C   SER A   9       4.913  41.529  22.453  0.00  0.00    +0.159 C 
BRANCH  56  57
ATOM     57  O   SER A   9       4.861  41.742  23.884  0.00  0.00    -0.380 OA
ATOM     58  H   SER A   9       4.590  40.902  24.332  0.00  0.00    +0.211 HD
ENDBRANCH  56  57
ENDBRANCH  53  56
ENDBRANCH  50  53
ENDBRANCH  48  49
BRANCH  48  59
ATOM     59  CB  SER A   8       4.841  35.882  22.476  0.00  0.00    +0.166 C 
BRANCH  59  60
ATOM     60  OG  SER A   8       5.140  35.718  21.113  0.00  0.00    -0.380 OA
ATOM     61  H   SER A   8       4.299  35.604  20.603  0.00  0.00    +0.211 HD
ENDBRANCH  59  60
ENDBRANCH  48  59
ENDBRANCH  46  48
ENDBRANCH  43  44
ENDBRANCH  41  43
ENDBRANCH  38  39
BRANCH  38  62
ATOM     62  CB  ASP A   6       1.078  32.410  20.368  0.00  0.00    +0.143 C 
BRANCH  62  63
ATOM     63  CG  ASP A   6       2.545  32.745  20.390  0.00  0.00    +0.367 C 
ATOM     64  OD2 ASP A   6       2.854  33.958  20.634  0.00  0.00    -0.246 OA
ATOM     65  OD1 ASP A   6       3.380  31.821  20.195  0.00  0.00    -0.246 OA
ENDBRANCH  62  63
ENDBRANCH  38  62
ENDBRANCH  35  38
ENDBRANCH  33  34
ENDBRANCH  31  33
ENDBRANCH   1  29
BRANCH   1  66
ATOM     66  CB  TYR A   4       3.953  36.492  17.581  0.00  0.00    +0.055 C 
BRANCH  66  67
ATOM     67  CG  TYR A   4       5.360  36.957  17.215  0.00  0.00    -0.020 A 
ATOM     68  CD2 TYR A   4       6.210  37.516  18.226  0.00  0.00    -0.001 A 
ATOM     69  CE2 TYR A   4       7.524  37.942  17.925  0.00  0.00    +0.036 A 
ATOM     70  CZ  TYR A   4       8.034  37.826  16.614  0.00  0.00    +0.134 A 
ATOM     71  CE1 TYR A   4       7.218  37.276  15.605  0.00  0.00    +0.036 A 
ATOM     72  CD1 TYR A   4       5.898  36.851  15.921  0.00  0.00    -0.001 A 
BRANCH  70  73
ATOM     73  OH  TYR A   4       9.352  38.268  16.367  0.00  0.00    -0.506 OA
ATOM     74  HH  TYR A   4       9.573  38.126  15.412  0.00  0.00    +0.292 HD
ENDBRANCH  70  73
ENDBRANCH  66  67
ENDBRANCH   1  66
TORSDOF 33
REMARK  Name = ../refined-set-2016/1gvw/1gvw_pocket.pdb
REMARK  241 active torsions:
REMARK  status: ('A' for Active; 'I' for Inactive)
REMARK    1  A    between atoms: _1  and  _3
REMARK    2  A    between atoms: _3  and  _4
REMARK    3  A    between atoms: _3  and  _6
REMARK    4  A    between atoms: _6  and  _7
REMARK    5  A    between atoms: _10  and  _12
REMARK    6  A    between atoms: _12  and  _13
REMARK    7  A    between atoms: _12  and  _15
REMARK    8  A    between atoms: _15  and  _16
REMARK    9  A    between atoms: _19  and  _21
REMARK   10  A    between atoms: _21  and  _22
REMARK   11  A    between atoms: _21  and  _24
REMARK   12  A    between atoms: _24  and  _25
REMARK   13  A    between atoms: _28  and  _30
REMARK   14  A    between atoms: _30  and  _31
REMARK   15  A    between atoms: _30  and  _33
REMARK   16  A    between atoms: _33  and  _34
REMARK   17  A    between atoms: _37  and  _39
REMARK   18  A    between atoms: _39  and  _40
REMARK   19  A    between atoms: _39  and  _42
REMARK   20  A    between atoms: _42  and  _43
REMARK   21  A    between atoms: _46  and  _48
REMARK   22  A    between atoms: _48  and  _49
REMARK   23  A    between atoms: _52  and  _54
REMARK   24  A    between atoms: _54  and  _55
REMARK   25  A    between atoms: _54  and  _57
REMARK   26  A    between atoms: _57  and  _58
REMARK   27  A    between atoms: _63  and  _64
REMARK   28  A    between atoms: _66  and  _68
REMARK   29  A    between atoms: _68  and  _69
REMARK   30  A    between atoms: _68  and  _71
REMARK   31  A    between atoms: _71  and  _72
REMARK   32  A    between atoms: _75  and  _77
REMARK   33  A    between atoms: _77  and  _78
REMARK   34  A    between atoms: _77  and  _80
REMARK   35  A    between atoms: _80  and  _81
REMARK   36  A    between atoms: _87  and  _89
REMARK   37  A    between atoms: _89  and  _90
REMARK   38  A    between atoms: _89  and  _92
REMARK   39  A    between atoms: _92  and  _93
REMARK   40  A    between atoms: _96  and  _98
REMARK   41  A    between atoms: _98  and  _99
REMARK   42  A    between atoms: _98  and  _101
REMARK   43  A    between atoms: _101  and  _102
REMARK   44  A    between atoms: _105  and  _107
REMARK   45  A    between atoms: _107  and  _108
REMARK   46  A    between atoms: _110  and  _112
REMARK   47  A    between atoms: _112  and  _113
REMARK   48  A    between atoms: _112  and  _115
REMARK   49  A    between atoms: _115  and  _116
REMARK   50  A    between atoms: _118  and  _120
REMARK   51  A    between atoms: _120  and  _121
REMARK   52  A    between atoms: _120  and  _123
REMARK   53  A    between atoms: _123  and  _124
REMARK   54  A    between atoms: _126  and  _128
REMARK   55  A    between atoms: _128  and  _129
REMARK   56  A    between atoms: _128  and  _131
REMARK   57  A    between atoms: _131  and  _132
REMARK   58  A    between atoms: _135  and  _137
REMARK   59  A    between atoms: _137  and  _138
REMARK   60  A    between atoms: _137  and  _140
REMARK   61  A    between atoms: _140  and  _141
REMARK   62  A    between atoms: _151  and  _153
REMARK   63  A    between atoms: _153  and  _154
REMARK   64  A    between atoms: _153  and  _156
REMARK   65  A    between atoms: _156  and  _157
REMARK   66  A    between atoms: _159  and  _161
REMARK   67  A    between atoms: _161  and  _162
REMARK   68  A    between atoms: _161  and  _164
REMARK   69  A    between atoms: _164  and  _165
REMARK   70  A    between atoms: _168  and  _170
REMARK   71  A    between atoms: _170  and  _171
REMARK   72  A    between atoms: _170  and  _173
REMARK   73  A    between atoms: _173  and  _174
REMARK   74  A    between atoms: _176  and  _178
REMARK   75  A    between atoms: _178  and  _179
REMARK   76  A    between atoms: _178  and  _181
REMARK   77  A    between atoms: _181  and  _182
REMARK   78  A    between atoms: _187  and  _188
REMARK   79  A    between atoms: _190  and  _192
REMARK   80  A    between atoms: _192  and  _193
REMARK   81  A    between atoms: _195  and  _197
REMARK   82  A    between atoms: _197  and  _198
REMARK   83  A    between atoms: _197  and  _200
REMARK   84  A    between atoms: _200  and  _201
REMARK   85  A    between atoms: _204  and  _206
REMARK   86  A    between atoms: _206  and  _207
REMARK   87  A    between atoms: _209  and  _211
REMARK   88  A    between atoms: _211  and  _212
REMARK   89  A    between atoms: _211  and  _214
REMARK   90  A    between atoms: _214  and  _215
REMARK   91  A    between atoms: _217  and  _219
REMARK   92  A    between atoms: _219  and  _220
REMARK   93  A    between atoms: _219  and  _222
REMARK   94  A    between atoms: _222  and  _223
REMARK   95  A    between atoms: _225  and  _227
REMARK   96  A    between atoms: _227  and  _228
REMARK   97  A    between atoms: _227  and  _230
REMARK   98  A    between atoms: _230  and  _231
REMARK   99  A    between atoms: _233  and  _235
REMARK  100  A    between atoms: _235  and  _236
REMARK  101  A    between atoms: _235  and  _238
REMARK  102  A    between atoms: _238  and  _239
REMARK  103  A    between atoms: _245  and  _247
REMARK  104  A    between atoms: _247  and  _248
REMARK  105  A    between atoms: _247  and  _250
REMARK  106  A    between atoms: _250  and  _251
REMARK  107  A    between atoms: _254  and  _256
REMARK  108  A    between atoms: _256  and  _257
REMARK  109  A    between atoms: _256  and  _259
REMARK  110  A    between atoms: _259  and  _260
REMARK  111  A    between atoms: _263  and  _265
REMARK  112  A    between atoms: _265  and  _266
REMARK  113  A    between atoms: _265  and  _268
REMARK  114  A    between atoms: _268  and  _269
REMARK  115  A    between atoms: _272  and  _274
REMARK  116  A    between atoms: _274  and  _275
REMARK  117  A    between atoms: _277  and  _279
REMARK  118  A    between atoms: _279  and  _280
REMARK  119  A    between atoms: _279  and  _282
REMARK  120  A    between atoms: _282  and  _283
REMARK  121  A    between atoms: _286  and  _288
REMARK  122  A    between atoms: _288  and  _289
REMARK  123  A    between atoms: _288  and  _291
REMARK  124  A    between atoms: _291  and  _292
REMARK  125  A    between atoms: _295  and  _297
REMARK  126  A    between atoms: _297  and  _298
REMARK  127  A    between atoms: _300  and  _302
REMARK  128  A    between atoms: _302  and  _303
REMARK  129  A    between atoms: _302  and  _305
REMARK  130  A    between atoms: _305  and  _306
REMARK  131  A    between atoms: _309  and  _311
REMARK  132  A    between atoms: _311  and  _312
REMARK  133  A    between atoms: _315  and  _317
REMARK  134  A    between atoms: _317  and  _318
REMARK  135  A    between atoms: _317  and  _320
REMARK  136  A    between atoms: _320  and  _321
REMARK  137  A    between atoms: _327  and  _329
REMARK  138  A    between atoms: _329  and  _330
REMARK  139  A    between atoms: _329  and  _332
REMARK  140  A    between atoms: _332  and  _333
REMARK  141  A    between atoms: _336  and  _338
REMARK  142  A    between atoms: _338  and  _339
REMARK  143  A    between atoms: _338  and  _341
REMARK  144  A    between atoms: _341  and  _342
REMARK  145  A    between atoms: _345  and  _347
REMARK  146  A    between atoms: _347  and  _348
REMARK  147  A    between atoms: _347  and  _350
REMARK  148  A    between atoms: _350  and  _351
REMARK  149  A    between atoms: _356  and  _358
REMARK  150  A    between atoms: _358  and  _359
REMARK  151  A    between atoms: _358  and  _361
REMARK  152  A    between atoms: _361  and  _362
REMARK  153  A    between atoms: _365  and  _367
REMARK  154  A    between atoms: _367  and  _368
REMARK  155  A    between atoms: _367  and  _370
REMARK  156  A    between atoms: _370  and  _371
REMARK  157  A    between atoms: _371  and  _372
REMARK  158  A    between atoms: _377  and  _379
REMARK  159  A    between atoms: _379  and  _380
REMARK  160  A    between atoms: _382  and  _384
REMARK  161  A    between atoms: _384  and  _385
REMARK  162  A    between atoms: _384  and  _387
REMARK  163  A    between atoms: _387  and  _388
REMARK  164  A    between atoms: _394  and  _396
REMARK  165  A    between atoms: _396  and  _397
REMARK  166  A    between atoms: _396  and  _399
REMARK  167  A    between atoms: _399  and  _400
REMARK  168  A    between atoms: _403  and  _405
REMARK  169  A    between atoms: _405  and  _406
REMARK  170  A    between atoms: _409  and  _411
REMARK  171  A    between atoms: _411  and  _412
REMARK  172  A    between atoms: _411  and  _414
REMARK  173  A    between atoms: _414  and  _415
REMARK  174  A    between atoms: _418  and  _420
REMARK  175  A    between atoms: _420  and  _421
REMARK  176  A    between atoms: _420  and  _423
REMARK  177  A    between atoms: _423  and  _424
REMARK  178  A    between atoms: _427  and  _429
REMARK  179  A    between atoms: _429  and  _430
REMARK  180  A    between atoms: _432  and  _434
REMARK  181  A    between atoms: _434  and  _435
REMARK  182  A    between atoms: _434  and  _437
REMARK  183  A    between atoms: _437  and  _438
REMARK  184  A    between atoms: _441  and  _443
REMARK  185  A    between atoms: _443  and  _444
REMARK  186  A    between atoms: _443  and  _446
REMARK  187  A    between atoms: _446  and  _447
REMARK  188  A    between atoms: _450  and  _452
REMARK  189  A    between atoms: _452  and  _453
REMARK  190  A    between atoms: _452  and  _455
REMARK  191  A    between atoms: _455  and  _456
REMARK  192  A    between atoms: _459  and  _461
REMARK  193  A    between atoms: _461  and  _462
REMARK  194  A    between atoms: _461  and  _464
REMARK  195  A    between atoms: _464  and  _465
REMARK  196  A    between atoms: _470  and  _471
REMARK  197  A    between atoms: _473  and  _475
REMARK  198  A    between atoms: _475  and  _476
REMARK  199  A    between atoms: _478  and  _480
REMARK  200  A    between atoms: _480  and  _481
REMARK  201  A    between atoms: _480  and  _483
REMARK  202  A    between atoms: _483  and  _484
REMARK  203  A    between atoms: _490  and  _492
REMARK  204  A    between atoms: _492  and  _493
REMARK  205  A    between atoms: _492  and  _495
REMARK  206  A    between atoms: _495  and  _496
REMARK  207  A    between atoms: _502  and  _504
REMARK  208  A    between atoms: _504  and  _505
REMARK  209  A    between atoms: _507  and  _509
REMARK  210  A    between atoms: _509  and  _510
REMARK  211  A    between atoms: _512  and  _514
REMARK  212  A    between atoms: _514  and  _515
REMARK  213  A    between atoms: _514  and  _517
REMARK  214  A    between atoms: _517  and  _518
REMARK  215  A    between atoms: _518  and  _519
REMARK  216  A    between atoms: _524  and  _526
REMARK  217  A    between atoms: _526  and  _527
REMARK  218  A    between atoms: _529  and  _531
REMARK  219  A    between atoms: _531  and  _532
REMARK  220  A    between atoms: _531  and  _534
REMARK  221  A    between atoms: _534  and  _535
REMARK  222  A    between atoms: _538  and  _540
REMARK  223  A    between atoms: _540  and  _541
REMARK  224  A    between atoms: _543  and  _545
REMARK  225  A    between atoms: _545  and  _546
REMARK  226  A    between atoms: _545  and  _548
REMARK  227  A    between atoms: _548  and  _549
REMARK  228  A    between atoms: _552  and  _554
REMARK  229  A    between atoms: _554  and  _555
REMARK  230  A    between atoms: _554  and  _557
REMARK  231  A    between atoms: _557  and  _558
REMARK  232  A    between atoms: _563  and  _565
REMARK  233  A    between atoms: _565  and  _566
REMARK  234  A    between atoms: _565  and  _568
REMARK  235  A    between atoms: _568  and  _569
REMARK  236  A    between atoms: _572  and  _574
REMARK  237  A    between atoms: _574  and  _575
REMARK  238  A    between atoms: _577  and  _579
REMARK  239  A    between atoms: _579  and  _580
REMARK  240  A    between atoms: _579  and  _582
REMARK  241  A    between atoms: _582  and  _583
REMARK                            x       y       z     vdW  Elec       q    Type
REMARK                         _______ _______ _______ _____ _____    ______ ____
ROOT
ATOM      1  C   SER A   1       8.216  33.180  26.384  0.00  0.00    +0.241 C 
ATOM      2  O   SER A   1       8.809  32.036  26.375  0.00  0.00    -0.274 OA
ATOM      3  N   PHE A   2       8.842  34.294  25.988  0.00  0.00    -0.298 N 
ATOM      4  H   PHE A   2       8.317  35.192  25.980  0.00  0.00    +0.150 HD
ENDROOT
BRANCH   1   5
ATOM      5  CA  SER A   1       6.761  33.283  26.917  0.00  0.00    +0.174 C 
BRANCH   5   6
ATOM      6  N   SER A   1       6.529  34.551  27.667  0.00  0.00    -0.236 NA
ATOM      7  H   SER A   1       5.825  35.237  27.328  0.00  0.00    +0.142 HD
ENDBRANCH   5   6
BRANCH   5   8
ATOM      8  CB  SER A   1       5.763  33.162  25.750  0.00  0.00    +0.163 C 
BRANCH   8   9
ATOM      9  OG  SER A   1       5.747  34.274  24.878  0.00  0.00    -0.380 OA
ATOM     10  H   SER A   1       5.501  35.087  25.386  0.00  0.00    +0.211 HD
ENDBRANCH   8   9
ENDBRANCH   5   8
ENDBRANCH   1   5
BRANCH   3  11
ATOM     11  CA  PHE A   2      10.273  34.288  25.556  0.00  0.00    +0.141 C 
BRANCH  11  12
ATOM     12  C   PHE A   2      11.222  34.040  26.765  0.00  0.00    +0.227 C 
ATOM     13  O   PHE A   2      12.134  33.191  26.699  0.00  0.00    -0.286 OA
ENDBRANCH  11  12
BRANCH  11  14
ATOM     14  CB  PHE A   2      10.609  35.578  24.787  0.00  0.00    +0.054 C 
BRANCH  14  15
ATOM     15  CG  PHE A   2       9.962  35.668  23.402  0.00  0.00    -0.020 A 
ATOM     16  CD2 PHE A   2       9.079  36.681  23.044  0.00  0.00    -0.004 A 
ATOM     17  CE2 PHE A   2       8.473  36.711  21.787  0.00  0.00    -0.000 A 
ATOM     18  CZ  PHE A   2       8.746  35.736  20.842  0.00  0.00    -0.000 A 
ATOM     19  CE1 PHE A   2       9.672  34.750  21.153  0.00  0.00    -0.000 A 
ATOM     20  CD1 PHE A   2      10.262  34.687  22.419  0.00  0.00    -0.004 A 
ENDBRANCH  14  15
ENDBRANCH  11  14
ENDBRANCH   3  11
TORSDOF 8
REMARK  Name = ../refined-set-2016/1gvw/1gvw_pocket.pdb
REMARK  241 active torsions:
REMARK  status: ('A' for Active; 'I' for Inactive)
REMARK    1  A    between atoms: _1  and  _3
REMARK    2  A    between atoms: _3  and  _4
REMARK    3  A    between atoms: _3  and  _6
REMARK    4  A    between atoms: _6  and  _7
REMARK    5  A    between atoms: _10  and  _12
REMARK    6  A    between atoms: _12  and  _13
REMARK    7  A    between atoms: _12  and  _15
REMARK    8  A    between atoms: _15  and  _16
REMARK    9  A    between atoms: _19  and  _21
REMARK   10  A    between atoms: _21  and  _22
REMARK   11  A    between atoms: _21  and  _24
REMARK   12  A    between atoms: _24  and  _25
REMARK   13  A    between atoms: _28  and  _30
REMARK   14  A    between atoms: _30  and  _31
REMARK   15  A    between atoms: _30  and  _33
REMARK   16  A    between atoms: _33  and  _34
REMARK   17  A    between atoms: _37  and  _39
REMARK   18  A    between atoms: _39  and  _40
REMARK   19  A    between atoms: _39  and  _42
REMARK   20  A    between atoms: _42  and  _43
REMARK   21  A    between atoms: _46  and  _48
REMARK   22  A    between atoms: _48  and  _49
REMARK   23  A    between atoms: _52  and  _54
REMARK   24  A    between atoms: _54  and  _55
REMARK   25  A    between atoms: _54  and  _57
REMARK   26  A    between atoms: _57  and  _58
REMARK   27  A    between atoms: _63  and  _64
REMARK   28  A    between atoms: _66  and  _68
REMARK   29  A    between atoms: _68  and  _69
REMARK   30  A    between atoms: _68  and  _71
REMARK   31  A    between atoms: _71  and  _72
REMARK   32  A    between atoms: _75  and  _77
REMARK   33  A    between atoms: _77  and  _78
REMARK   34  A    between atoms: _77  and  _80
REMARK   35  A    between atoms: _80  and  _81
REMARK   36  A    between atoms: _87  and  _89
REMARK   37  A    between atoms: _89  and  _90
REMARK   38  A    between atoms: _89  and  _92
REMARK   39  A    between atoms: _92  and  _93
REMARK   40  A    between atoms: _96  and  _98
REMARK   41  A    between atoms: _98  and  _99
REMARK   42  A    between atoms: _98  and  _101
REMARK   43  A    between atoms: _101  and  _102
REMARK   44  A    between atoms: _105  and  _107
REMARK   45  A    between atoms: _107  and  _108
REMARK   46  A    between atoms: _110  and  _112
REMARK   47  A    between atoms: _112  and  _113
REMARK   48  A    between atoms: _112  and  _115
REMARK   49  A    between atoms: _115  and  _116
REMARK   50  A    between atoms: _118  and  _120
REMARK   51  A    between atoms: _120  and  _121
REMARK   52  A    between atoms: _120  and  _123
REMARK   53  A    between atoms: _123  and  _124
REMARK   54  A    between atoms: _126  and  _128
REMARK   55  A    between atoms: _128  and  _129
REMARK   56  A    between atoms: _128  and  _131
REMARK   57  A    between atoms: _131  and  _132
REMARK   58  A    between atoms: _135  and  _137
REMARK   59  A    between atoms: _137  and  _138
REMARK   60  A    between atoms: _137  and  _140
REMARK   61  A    between atoms: _140  and  _141
REMARK   62  A    between atoms: _151  and  _153
REMARK   63  A    between atoms: _153  and  _154
REMARK   64  A    between atoms: _153  and  _156
REMARK   65  A    between atoms: _156  and  _157
REMARK   66  A    between atoms: _159  and  _161
REMARK   67  A    between atoms: _161  and  _162
REMARK   68  A    between atoms: _161  and  _164
REMARK   69  A    between atoms: _164  and  _165
REMARK   70  A    between atoms: _168  and  _170
REMARK   71  A    between atoms: _170  and  _171
REMARK   72  A    between atoms: _170  and  _173
REMARK   73  A    between atoms: _173  and  _174
REMARK   74  A    between atoms: _176  and  _178
REMARK   75  A    between atoms: _178  and  _179
REMARK   76  A    between atoms: _178  and  _181
REMARK   77  A    between atoms: _181  and  _182
REMARK   78  A    between atoms: _187  and  _188
REMARK   79  A    between atoms: _190  and  _192
REMARK   80  A    between atoms: _192  and  _193
REMARK   81  A    between atoms: _195  and  _197
REMARK   82  A    between atoms: _197  and  _198
REMARK   83  A    between atoms: _197  and  _200
REMARK   84  A    between atoms: _200  and  _201
REMARK   85  A    between atoms: _204  and  _206
REMARK   86  A    between atoms: _206  and  _207
REMARK   87  A    between atoms: _209  and  _211
REMARK   88  A    between atoms: _211  and  _212
REMARK   89  A    between atoms: _211  and  _214
REMARK   90  A    between atoms: _214  and  _215
REMARK   91  A    between atoms: _217  and  _219
REMARK   92  A    between atoms: _219  and  _220
REMARK   93  A    between atoms: _219  and  _222
REMARK   94  A    between atoms: _222  and  _223
REMARK   95  A    between atoms: _225  and  _227
REMARK   96  A    between atoms: _227  and  _228
REMARK   97  A    between atoms: _227  and  _230
REMARK   98  A    between atoms: _230  and  _231
REMARK   99  A    between atoms: _233  and  _235
REMARK  100  A    between atoms: _235  and  _236
REMARK  101  A    between atoms: _235  and  _238
REMARK  102  A    between atoms: _238  and  _239
REMARK  103  A    between atoms: _245  and  _247
REMARK  104  A    between atoms: _247  and  _248
REMARK  105  A    between atoms: _247  and  _250
REMARK  106  A    between atoms: _250  and  _251
REMARK  107  A    between atoms: _254  and  _256
REMARK  108  A    between atoms: _256  and  _257
REMARK  109  A    between atoms: _256  and  _259
REMARK  110  A    between atoms: _259  and  _260
REMARK  111  A    between atoms: _263  and  _265
REMARK  112  A    between atoms: _265  and  _266
REMARK  113  A    between atoms: _265  and  _268
REMARK  114  A    between atoms: _268  and  _269
REMARK  115  A    between atoms: _272  and  _274
REMARK  116  A    between atoms: _274  and  _275
REMARK  117  A    between atoms: _277  and  _279
REMARK  118  A    between atoms: _279  and  _280
REMARK  119  A    between atoms: _279  and  _282
REMARK  120  A    between atoms: _282  and  _283
REMARK  121  A    between atoms: _286  and  _288
REMARK  122  A    between atoms: _288  and  _289
REMARK  123  A    between atoms: _288  and  _291
REMARK  124  A    between atoms: _291  and  _292
REMARK  125  A    between atoms: _295  and  _297
REMARK  126  A    between atoms: _297  and  _298
REMARK  127  A    between atoms: _300  and  _302
REMARK  128  A    between atoms: _302  and  _303
REMARK  129  A    between atoms: _302  and  _305
REMARK  130  A    between atoms: _305  and  _306
REMARK  131  A    between atoms: _309  and  _311
REMARK  132  A    between atoms: _311  and  _312
REMARK  133  A    between atoms: _315  and  _317
REMARK  134  A    between atoms: _317  and  _318
REMARK  135  A    between atoms: _317  and  _320
REMARK  136  A    between atoms: _320  and  _321
REMARK  137  A    between atoms: _327  and  _329
REMARK  138  A    between atoms: _329  and  _330
REMARK  139  A    between atoms: _329  and  _332
REMARK  140  A    between atoms: _332  and  _333
REMARK  141  A    between atoms: _336  and  _338
REMARK  142  A    between atoms: _338  and  _339
REMARK  143  A    between atoms: _338  and  _341
REMARK  144  A    between atoms: _341  and  _342
REMARK  145  A    between atoms: _345  and  _347
REMARK  146  A    between atoms: _347  and  _348
REMARK  147  A    between atoms: _347  and  _350
REMARK  148  A    between atoms: _350  and  _351
REMARK  149  A    between atoms: _356  and  _358
REMARK  150  A    between atoms: _358  and  _359
REMARK  151  A    between atoms: _358  and  _361
REMARK  152  A    between atoms: _361  and  _362
REMARK  153  A    between atoms: _365  and  _367
REMARK  154  A    between atoms: _367  and  _368
REMARK  155  A    between atoms: _367  and  _370
REMARK  156  A    between atoms: _370  and  _371
REMARK  157  A    between atoms: _371  and  _372
REMARK  158  A    between atoms: _377  and  _379
REMARK  159  A    between atoms: _379  and  _380
REMARK  160  A    between atoms: _382  and  _384
REMARK  161  A    between atoms: _384  and  _385
REMARK  162  A    between atoms: _384  and  _387
REMARK  163  A    between atoms: _387  and  _388
REMARK  164  A    between atoms: _394  and  _396
REMARK  165  A    between atoms: _396  and  _397
REMARK  166  A    between atoms: _396  and  _399
REMARK  167  A    between atoms: _399  and  _400
REMARK  168  A    between atoms: _403  and  _405
REMARK  169  A    between atoms: _405  and  _406
REMARK  170  A    between atoms: _409  and  _411
REMARK  171  A    between atoms: _411  and  _412
REMARK  172  A    between atoms: _411  and  _414
REMARK  173  A    between atoms: _414  and  _415
REMARK  174  A    between atoms: _418  and  _420
REMARK  175  A    between atoms: _420  and  _421
REMARK  176  A    between atoms: _420  and  _423
REMARK  177  A    between atoms: _423  and  _424
REMARK  178  A    between atoms: _427  and  _429
REMARK  179  A    between atoms: _429  and  _430
REMARK  180  A    between atoms: _432  and  _434
REMARK  181  A    between atoms: _434  and  _435
REMARK  182  A    between atoms: _434  and  _437
REMARK  183  A    between atoms: _437  and  _438
REMARK  184  A    between atoms: _441  and  _443
REMARK  185  A    between atoms: _443  and  _444
REMARK  186  A    between atoms: _443  and  _446
REMARK  187  A    between atoms: _446  and  _447
REMARK  188  A    between atoms: _450  and  _452
REMARK  189  A    between atoms: _452  and  _453
REMARK  190  A    between atoms: _452  and  _455
REMARK  191  A    between atoms: _455  and  _456
REMARK  192  A    between atoms: _459  and  _461
REMARK  193  A    between atoms: _461  and  _462
REMARK  194  A    between atoms: _461  and  _464
REMARK  195  A    between atoms: _464  and  _465
REMARK  196  A    between atoms: _470  and  _471
REMARK  197  A    between atoms: _473  and  _475
REMARK  198  A    between atoms: _475  and  _476
REMARK  199  A    between atoms: _478  and  _480
REMARK  200  A    between atoms: _480  and  _481
REMARK  201  A    between atoms: _480  and  _483
REMARK  202  A    between atoms: _483  and  _484
REMARK  203  A    between atoms: _490  and  _492
REMARK  204  A    between atoms: _492  and  _493
REMARK  205  A    between atoms: _492  and  _495
REMARK  206  A    between atoms: _495  and  _496
REMARK  207  A    between atoms: _502  and  _504
REMARK  208  A    between atoms: _504  and  _505
REMARK  209  A    between atoms: _507  and  _509
REMARK  210  A    between atoms: _509  and  _510
REMARK  211  A    between atoms: _512  and  _514
REMARK  212  A    between atoms: _514  and  _515
REMARK  213  A    between atoms: _514  and  _517
REMARK  214  A    between atoms: _517  and  _518
REMARK  215  A    between atoms: _518  and  _519
REMARK  216  A    between atoms: _524  and  _526
REMARK  217  A    between atoms: _526  and  _527
REMARK  218  A    between atoms: _529  and  _531
REMARK  219  A    between atoms: _531  and  _532
REMARK  220  A    between atoms: _531  and  _534
REMARK  221  A    between atoms: _534  and  _535
REMARK  222  A    between atoms: _538  and  _540
REMARK  223  A    between atoms: _540  and  _541
REMARK  224  A    between atoms: _543  and  _545
REMARK  225  A    between atoms: _545  and  _546
REMARK  226  A    between atoms: _545  and  _548
REMARK  227  A    between atoms: _548  and  _549
REMARK  228  A    between atoms: _552  and  _554
REMARK  229  A    between atoms: _554  and  _555
REMARK  230  A    between atoms: _554  and  _557
REMARK  231  A    between atoms: _557  and  _558
REMARK  232  A    between atoms: _563  and  _565
REMARK  233  A    between atoms: _565  and  _566
REMARK  234  A    between atoms: _565  and  _568
REMARK  235  A    between atoms: _568  and  _569
REMARK  236  A    between atoms: _572  and  _574
REMARK  237  A    between atoms: _574  and  _575
REMARK  238  A    between atoms: _577  and  _579
REMARK  239  A    between atoms: _579  and  _580
REMARK  240  A    between atoms: _579  and  _582
REMARK  241  A    between atoms: _582  and  _583
REMARK                            x       y       z     vdW  Elec       q    Type
REMARK                         _______ _______ _______ _____ _____    ______ ____
ROOT
ATOM      1  CA  ASP A   1      12.072  29.339  26.805  0.00  0.00    +0.144 C 
ENDROOT
BRANCH   1   2
ATOM      2  N   ASP A   1      11.457  30.299  27.710  0.00  0.00    -0.239 NA
ATOM      3  H   ASP A   1      11.353  31.292  27.420  0.00  0.00    +0.142 HD
ENDBRANCH   1   2
BRANCH   1   4
ATOM      4  C   ASP A   1      13.569  29.510  26.676  0.00  0.00    +0.225 C 
ATOM      5  O   ASP A   1      14.081  30.355  25.960  0.00  0.00    -0.287 OA
ENDBRANCH   1   4
BRANCH   1   6
ATOM      6  CB  ASP A   1      11.380  29.461  25.427  0.00  0.00    +0.139 C 
BRANCH   6   7
ATOM      7  CG  ASP A   1      11.903  28.380  24.496  0.00  0.00    +0.367 C 
ATOM      8  OD2 ASP A   1      12.740  27.567  24.911  0.00  0.00    -0.246 OA
ATOM      9  OD1 ASP A   1      11.452  28.410  23.325  0.00  0.00    -0.246 OA
ENDBRANCH   6   7
ENDBRANCH   1   6
TORSDOF 4
REMARK  Name = ../refined-set-2016/1gvw/1gvw_pocket.pdb
REMARK  241 active torsions:
REMARK  status: ('A' for Active; 'I' for Inactive)
REMARK    1  A    between atoms: _1  and  _3
REMARK    2  A    between atoms: _3  and  _4
REMARK    3  A    between atoms: _3  and  _6
REMARK    4  A    between atoms: _6  and  _7
REMARK    5  A    between atoms: _10  and  _12
REMARK    6  A    between atoms: _12  and  _13
REMARK    7  A    between atoms: _12  and  _15
REMARK    8  A    between atoms: _15  and  _16
REMARK    9  A    between atoms: _19  and  _21
REMARK   10  A    between atoms: _21  and  _22
REMARK   11  A    between atoms: _21  and  _24
REMARK   12  A    between atoms: _24  and  _25
REMARK   13  A    between atoms: _28  and  _30
REMARK   14  A    between atoms: _30  and  _31
REMARK   15  A    between atoms: _30  and  _33
REMARK   16  A    between atoms: _33  and  _34
REMARK   17  A    between atoms: _37  and  _39
REMARK   18  A    between atoms: _39  and  _40
REMARK   19  A    between atoms: _39  and  _42
REMARK   20  A    between atoms: _42  and  _43
REMARK   21  A    between atoms: _46  and  _48
REMARK   22  A    between atoms: _48  and  _49
REMARK   23  A    between atoms: _52  and  _54
REMARK   24  A    between atoms: _54  and  _55
REMARK   25  A    between atoms: _54  and  _57
REMARK   26  A    between atoms: _57  and  _58
REMARK   27  A    between atoms: _63  and  _64
REMARK   28  A    between atoms: _66  and  _68
REMARK   29  A    between atoms: _68  and  _69
REMARK   30  A    between atoms: _68  and  _71
REMARK   31  A    between atoms: _71  and  _72
REMARK   32  A    between atoms: _75  and  _77
REMARK   33  A    between atoms: _77  and  _78
REMARK   34  A    between atoms: _77  and  _80
REMARK   35  A    between atoms: _80  and  _81
REMARK   36  A    between atoms: _87  and  _89
REMARK   37  A    between atoms: _89  and  _90
REMARK   38  A    between atoms: _89  and  _92
REMARK   39  A    between atoms: _92  and  _93
REMARK   40  A    between atoms: _96  and  _98
REMARK   41  A    between atoms: _98  and  _99
REMARK   42  A    between atoms: _98  and  _101
REMARK   43  A    between atoms: _101  and  _102
REMARK   44  A    between atoms: _105  and  _107
REMARK   45  A    between atoms: _107  and  _108
REMARK   46  A    between atoms: _110  and  _112
REMARK   47  A    between atoms: _112  and  _113
REMARK   48  A    between atoms: _112  and  _115
REMARK   49  A    between atoms: _115  and  _116
REMARK   50  A    between atoms: _118  and  _120
REMARK   51  A    between atoms: _120  and  _121
REMARK   52  A    between atoms: _120  and  _123
REMARK   53  A    between atoms: _123  and  _124
REMARK   54  A    between atoms: _126  and  _128
REMARK   55  A    between atoms: _128  and  _129
REMARK   56  A    between atoms: _128  and  _131
REMARK   57  A    between atoms: _131  and  _132
REMARK   58  A    between atoms: _135  and  _137
REMARK   59  A    between atoms: _137  and  _138
REMARK   60  A    between atoms: _137  and  _140
REMARK   61  A    between atoms: _140  and  _141
REMARK   62  A    between atoms: _151  and  _153
REMARK   63  A    between atoms: _153  and  _154
REMARK   64  A    between atoms: _153  and  _156
REMARK   65  A    between atoms: _156  and  _157
REMARK   66  A    between atoms: _159  and  _161
REMARK   67  A    between atoms: _161  and  _162
REMARK   68  A    between atoms: _161  and  _164
REMARK   69  A    between atoms: _164  and  _165
REMARK   70  A    between atoms: _168  and  _170
REMARK   71  A    between atoms: _170  and  _171
REMARK   72  A    between atoms: _170  and  _173
REMARK   73  A    between atoms: _173  and  _174
REMARK   74  A    between atoms: _176  and  _178
REMARK   75  A    between atoms: _178  and  _179
REMARK   76  A    between atoms: _178  and  _181
REMARK   77  A    between atoms: _181  and  _182
REMARK   78  A    between atoms: _187  and  _188
REMARK   79  A    between atoms: _190  and  _192
REMARK   80  A    between atoms: _192  and  _193
REMARK   81  A    between atoms: _195  and  _197
REMARK   82  A    between atoms: _197  and  _198
REMARK   83  A    between atoms: _197  and  _200
REMARK   84  A    between atoms: _200  and  _201
REMARK   85  A    between atoms: _204  and  _206
REMARK   86  A    between atoms: _206  and  _207
REMARK   87  A    between atoms: _209  and  _211
REMARK   88  A    between atoms: _211  and  _212
REMARK   89  A    between atoms: _211  and  _214
REMARK   90  A    between atoms: _214  and  _215
REMARK   91  A    between atoms: _217  and  _219
REMARK   92  A    between atoms: _219  and  _220
REMARK   93  A    between atoms: _219  and  _222
REMARK   94  A    between atoms: _222  and  _223
REMARK   95  A    between atoms: _225  and  _227
REMARK   96  A    between atoms: _227  and  _228
REMARK   97  A    between atoms: _227  and  _230
REMARK   98  A    between atoms: _230  and  _231
REMARK   99  A    between atoms: _233  and  _235
REMARK  100  A    between atoms: _235  and  _236
REMARK  101  A    between atoms: _235  and  _238
REMARK  102  A    between atoms: _238  and  _239
REMARK  103  A    between atoms: _245  and  _247
REMARK  104  A    between atoms: _247  and  _248
REMARK  105  A    between atoms: _247  and  _250
REMARK  106  A    between atoms: _250  and  _251
REMARK  107  A    between atoms: _254  and  _256
REMARK  108  A    between atoms: _256  and  _257
REMARK  109  A    between atoms: _256  and  _259
REMARK  110  A    between atoms: _259  and  _260
REMARK  111  A    between atoms: _263  and  _265
REMARK  112  A    between atoms: _265  and  _266
REMARK  113  A    between atoms: _265  and  _268
REMARK  114  A    between atoms: _268  and  _269
REMARK  115  A    between atoms: _272  and  _274
REMARK  116  A    between atoms: _274  and  _275
REMARK  117  A    between atoms: _277  and  _279
REMARK  118  A    between atoms: _279  and  _280
REMARK  119  A    between atoms: _279  and  _282
REMARK  120  A    between atoms: _282  and  _283
REMARK  121  A    between atoms: _286  and  _288
REMARK  122  A    between atoms: _288  and  _289
REMARK  123  A    between atoms: _288  and  _291
REMARK  124  A    between atoms: _291  and  _292
REMARK  125  A    between atoms: _295  and  _297
REMARK  126  A    between atoms: _297  and  _298
REMARK  127  A    between atoms: _300  and  _302
REMARK  128  A    between atoms: _302  and  _303
REMARK  129  A    between atoms: _302  and  _305
REMARK  130  A    between atoms: _305  and  _306
REMARK  131  A    between atoms: _309  and  _311
REMARK  132  A    between atoms: _311  and  _312
REMARK  133  A    between atoms: _315  and  _317
REMARK  134  A    between atoms: _317  and  _318
REMARK  135  A    between atoms: _317  and  _320
REMARK  136  A    between atoms: _320  and  _321
REMARK  137  A    between atoms: _327  and  _329
REMARK  138  A    between atoms: _329  and  _330
REMARK  139  A    between atoms: _329  and  _332
REMARK  140  A    between atoms: _332  and  _333
REMARK  141  A    between atoms: _336  and  _338
REMARK  142  A    between atoms: _338  and  _339
REMARK  143  A    between atoms: _338  and  _341
REMARK  144  A    between atoms: _341  and  _342
REMARK  145  A    between atoms: _345  and  _347
REMARK  146  A    between atoms: _347  and  _348
REMARK  147  A    between atoms: _347  and  _350
REMARK  148  A    between atoms: _350  and  _351
REMARK  149  A    between atoms: _356  and  _358
REMARK  150  A    between atoms: _358  and  _359
REMARK  151  A    between atoms: _358  and  _361
REMARK  152  A    between atoms: _361  and  _362
REMARK  153  A    between atoms: _365  and  _367
REMARK  154  A    between atoms: _367  and  _368
REMARK  155  A    between atoms: _367  and  _370
REMARK  156  A    between atoms: _370  and  _371
REMARK  157  A    between atoms: _371  and  _372
REMARK  158  A    between atoms: _377  and  _379
REMARK  159  A    between atoms: _379  and  _380
REMARK  160  A    between atoms: _382  and  _384
REMARK  161  A    between atoms: _384  and  _385
REMARK  162  A    between atoms: _384  and  _387
REMARK  163  A    between atoms: _387  and  _388
REMARK  164  A    between atoms: _394  and  _396
REMARK  165  A    between atoms: _396  and  _397
REMARK  166  A    between atoms: _396  and  _399
REMARK  167  A    between atoms: _399  and  _400
REMARK  168  A    between atoms: _403  and  _405
REMARK  169  A    between atoms: _405  and  _406
REMARK  170  A    between atoms: _409  and  _411
REMARK  171  A    between atoms: _411  and  _412
REMARK  172  A    between atoms: _411  and  _414
REMARK  173  A    between atoms: _414  and  _415
REMARK  174  A    between atoms: _418  and  _420
REMARK  175  A    between atoms: _420  and  _421
REMARK  176  A    between atoms: _420  and  _423
REMARK  177  A    between atoms: _423  and  _424
REMARK  178  A    between atoms: _427  and  _429
REMARK  179  A    between atoms: _429  and  _430
REMARK  180  A    between atoms: _432  and  _434
REMARK  181  A    between atoms: _434  and  _435
REMARK  182  A    between atoms: _434  and  _437
REMARK  183  A    between atoms: _437  and  _438
REMARK  184  A    between atoms: _441  and  _443
REMARK  185  A    between atoms: _443  and  _444
REMARK  186  A    between atoms: _443  and  _446
REMARK  187  A    between atoms: _446  and  _447
REMARK  188  A    between atoms: _450  and  _452
REMARK  189  A    between atoms: _452  and  _453
REMARK  190  A    between atoms: _452  and  _455
REMARK  191  A    between atoms: _455  and  _456
REMARK  192  A    between atoms: _459  and  _461
REMARK  193  A    between atoms: _461  and  _462
REMARK  194  A    between atoms: _461  and  _464
REMARK  195  A    between atoms: _464  and  _465
REMARK  196  A    between atoms: _470  and  _471
REMARK  197  A    between atoms: _473  and  _475
REMARK  198  A    between atoms: _475  and  _476
REMARK  199  A    between atoms: _478  and  _480
REMARK  200  A    between atoms: _480  and  _481
REMARK  201  A    between atoms: _480  and  _483
REMARK  202  A    between atoms: _483  and  _484
REMARK  203  A    between atoms: _490  and  _492
REMARK  204  A    between atoms: _492  and  _493
REMARK  205  A    between atoms: _492  and  _495
REMARK  206  A    between atoms: _495  and  _496
REMARK  207  A    between atoms: _502  and  _504
REMARK  208  A    between atoms: _504  and  _505
REMARK  209  A    between atoms: _507  and  _509
REMARK  210  A    between atoms: _509  and  _510
REMARK  211  A    between atoms: _512  and  _514
REMARK  212  A    between atoms: _514  and  _515
REMARK  213  A    between atoms: _514  and  _517
REMARK  214  A    between atoms: _517  and  _518
REMARK  215  A    between atoms: _518  and  _519
REMARK  216  A    between atoms: _524  and  _526
REMARK  217  A    between atoms: _526  and  _527
REMARK  218  A    between atoms: _529  and  _531
REMARK  219  A    between atoms: _531  and  _532
REMARK  220  A    between atoms: _531  and  _534
REMARK  221  A    between atoms: _534  and  _535
REMARK  222  A    between atoms: _538  and  _540
REMARK  223  A    between atoms: _540  and  _541
REMARK  224  A    between atoms: _543  and  _545
REMARK  225  A    between atoms: _545  and  _546
REMARK  226  A    between atoms: _545  and  _548
REMARK  227  A    between atoms: _548  and  _549
REMARK  228  A    between atoms: _552  and  _554
REMARK  229  A    between atoms: _554  and  _555
REMARK  230  A    between atoms: _554  and  _557
REMARK  231  A    between atoms: _557  and  _558
REMARK  232  A    between atoms: _563  and  _565
REMARK  233  A    between atoms: _565  and  _566
REMARK  234  A    between atoms: _565  and  _568
REMARK  235  A    between atoms: _568  and  _569
REMARK  236  A    between atoms: _572  and  _574
REMARK  237  A    between atoms: _574  and  _575
REMARK  238  A    between atoms: _577  and  _579
REMARK  239  A    between atoms: _579  and  _580
REMARK  240  A    between atoms: _579  and  _582
REMARK  241  A    between atoms: _582  and  _583
REMARK                            x       y       z     vdW  Elec       q    Type
REMARK                         _______ _______ _______ _____ _____    ______ ____
ROOT
ATOM      1  C   THR A   1      16.707  28.396  22.956  0.00  0.00    +0.241 C 
ATOM      2  N   ILE A   2      15.840  29.432  22.997  0.00  0.00    -0.298 N 
ATOM      3  H   ILE A   2      15.268  29.572  23.854  0.00  0.00    +0.150 HD
ATOM      4  O   THR A   1      17.487  28.227  21.992  0.00  0.00    -0.274 OA
ENDROOT
BRANCH   1   5
ATOM      5  CA  THR A   1      16.682  27.387  24.112  0.00  0.00    +0.172 C 
BRANCH   5   6
ATOM      6  N   THR A   1      15.959  27.881  25.300  0.00  0.00    -0.236 NA
ATOM      7  H   THR A   1      14.947  27.663  25.395  0.00  0.00    +0.142 HD
ENDBRANCH   5   6
BRANCH   5   8
ATOM      8  CB  THR A   1      16.055  26.034  23.602  0.00  0.00    +0.135 C 
ATOM      9  CG2 THR A   1      16.057  24.991  24.693  0.00  0.00    +0.034 C 
BRANCH   8  10
ATOM     10  OG1 THR A   1      14.693  26.320  23.156  0.00  0.00    -0.383 OA
ATOM     11  HG1 THR A   1      14.168  26.681  23.914  0.00  0.00    +0.210 HD
ENDBRANCH   8  10
ENDBRANCH   5   8
ENDBRANCH   1   5
BRANCH   2  12
ATOM     12  CA  ILE A   2      15.671  30.385  21.858  0.00  0.00    +0.137 C 
BRANCH  12  13
ATOM     13  C   ILE A   2      16.254  31.750  22.302  0.00  0.00    +0.227 C 
ATOM     14  O   ILE A   2      15.732  32.385  23.235  0.00  0.00    -0.286 OA
ENDBRANCH  12  13
BRANCH  12  15
ATOM     15  CB  ILE A   2      14.181  30.495  21.418  0.00  0.00    +0.026 C 
ATOM     16  CG2 ILE A   2      13.943  31.665  20.486  0.00  0.00    +0.002 C 
BRANCH  15  17
ATOM     17  CG1 ILE A   2      13.716  29.132  20.776  0.00  0.00    +0.002 C 
ATOM     18  CD1 ILE A   2      12.227  29.027  20.478  0.00  0.00    +0.000 C 
ENDBRANCH  15  17
ENDBRANCH  12  15
ENDBRANCH   2  12
TORSDOF 8
REMARK  Name = ../refined-set-2016/1gvw/1gvw_pocket.pdb
REMARK  241 active torsions:
REMARK  status: ('A' for Active; 'I' for Inactive)
REMARK    1  A    between atoms: _1  and  _3
REMARK    2  A    between atoms: _3  and  _4
REMARK    3  A    between atoms: _3  and  _6
REMARK    4  A    between atoms: _6  and  _7
REMARK    5  A    between atoms: _10  and  _12
REMARK    6  A    between atoms: _12  and  _13
REMARK    7  A    between atoms: _12  and  _15
REMARK    8  A    between atoms: _15  and  _16
REMARK    9  A    between atoms: _19  and  _21
REMARK   10  A    between atoms: _21  and  _22
REMARK   11  A    between atoms: _21  and  _24
REMARK   12  A    between atoms: _24  and  _25
REMARK   13  A    between atoms: _28  and  _30
REMARK   14  A    between atoms: _30  and  _31
REMARK   15  A    between atoms: _30  and  _33
REMARK   16  A    between atoms: _33  and  _34
REMARK   17  A    between atoms: _37  and  _39
REMARK   18  A    between atoms: _39  and  _40
REMARK   19  A    between atoms: _39  and  _42
REMARK   20  A    between atoms: _42  and  _43
REMARK   21  A    between atoms: _46  and  _48
REMARK   22  A    between atoms: _48  and  _49
REMARK   23  A    between atoms: _52  and  _54
REMARK   24  A    between atoms: _54  and  _55
REMARK   25  A    between atoms: _54  and  _57
REMARK   26  A    between atoms: _57  and  _58
REMARK   27  A    between atoms: _63  and  _64
REMARK   28  A    between atoms: _66  and  _68
REMARK   29  A    between atoms: _68  and  _69
REMARK   30  A    between atoms: _68  and  _71
REMARK   31  A    between atoms: _71  and  _72
REMARK   32  A    between atoms: _75  and  _77
REMARK   33  A    between atoms: _77  and  _78
REMARK   34  A    between atoms: _77  and  _80
REMARK   35  A    between atoms: _80  and  _81
REMARK   36  A    between atoms: _87  and  _89
REMARK   37  A    between atoms: _89  and  _90
REMARK   38  A    between atoms: _89  and  _92
REMARK   39  A    between atoms: _92  and  _93
REMARK   40  A    between atoms: _96  and  _98
REMARK   41  A    between atoms: _98  and  _99
REMARK   42  A    between atoms: _98  and  _101
REMARK   43  A    between atoms: _101  and  _102
REMARK   44  A    between atoms: _105  and  _107
REMARK   45  A    between atoms: _107  and  _108
REMARK   46  A    between atoms: _110  and  _112
REMARK   47  A    between atoms: _112  and  _113
REMARK   48  A    between atoms: _112  and  _115
REMARK   49  A    between atoms: _115  and  _116
REMARK   50  A    between atoms: _118  and  _120
REMARK   51  A    between atoms: _120  and  _121
REMARK   52  A    between atoms: _120  and  _123
REMARK   53  A    between atoms: _123  and  _124
REMARK   54  A    between atoms: _126  and  _128
REMARK   55  A    between atoms: _128  and  _129
REMARK   56  A    between atoms: _128  and  _131
REMARK   57  A    between atoms: _131  and  _132
REMARK   58  A    between atoms: _135  and  _137
REMARK   59  A    between atoms: _137  and  _138
REMARK   60  A    between atoms: _137  and  _140
REMARK   61  A    between atoms: _140  and  _141
REMARK   62  A    between atoms: _151  and  _153
REMARK   63  A    between atoms: _153  and  _154
REMARK   64  A    between atoms: _153  and  _156
REMARK   65  A    between atoms: _156  and  _157
REMARK   66  A    between atoms: _159  and  _161
REMARK   67  A    between atoms: _161  and  _162
REMARK   68  A    between atoms: _161  and  _164
REMARK   69  A    between atoms: _164  and  _165
REMARK   70  A    between atoms: _168  and  _170
REMARK   71  A    between atoms: _170  and  _171
REMARK   72  A    between atoms: _170  and  _173
REMARK   73  A    between atoms: _173  and  _174
REMARK   74  A    between atoms: _176  and  _178
REMARK   75  A    between atoms: _178  and  _179
REMARK   76  A    between atoms: _178  and  _181
REMARK   77  A    between atoms: _181  and  _182
REMARK   78  A    between atoms: _187  and  _188
REMARK   79  A    between atoms: _190  and  _192
REMARK   80  A    between atoms: _192  and  _193
REMARK   81  A    between atoms: _195  and  _197
REMARK   82  A    between atoms: _197  and  _198
REMARK   83  A    between atoms: _197  and  _200
REMARK   84  A    between atoms: _200  and  _201
REMARK   85  A    between atoms: _204  and  _206
REMARK   86  A    between atoms: _206  and  _207
REMARK   87  A    between atoms: _209  and  _211
REMARK   88  A    between atoms: _211  and  _212
REMARK   89  A    between atoms: _211  and  _214
REMARK   90  A    between atoms: _214  and  _215
REMARK   91  A    between atoms: _217  and  _219
REMARK   92  A    between atoms: _219  and  _220
REMARK   93  A    between atoms: _219  and  _222
REMARK   94  A    between atoms: _222  and  _223
REMARK   95  A    between atoms: _225  and  _227
REMARK   96  A    between atoms: _227  and  _228
REMARK   97  A    between atoms: _227  and  _230
REMARK   98  A    between atoms: _230  and  _231
REMARK   99  A    between atoms: _233  and  _235
REMARK  100  A    between atoms: _235  and  _236
REMARK  101  A    between atoms: _235  and  _238
REMARK  102  A    between atoms: _238  and  _239
REMARK  103  A    between atoms: _245  and  _247
REMARK  104  A    between atoms: _247  and  _248
REMARK  105  A    between atoms: _247  and  _250
REMARK  106  A    between atoms: _250  and  _251
REMARK  107  A    between atoms: _254  and  _256
REMARK  108  A    between atoms: _256  and  _257
REMARK  109  A    between atoms: _256  and  _259
REMARK  110  A    between atoms: _259  and  _260
REMARK  111  A    between atoms: _263  and  _265
REMARK  112  A    between atoms: _265  and  _266
REMARK  113  A    between atoms: _265  and  _268
REMARK  114  A    between atoms: _268  and  _269
REMARK  115  A    between atoms: _272  and  _274
REMARK  116  A    between atoms: _274  and  _275
REMARK  117  A    between atoms: _277  and  _279
REMARK  118  A    between atoms: _279  and  _280
REMARK  119  A    between atoms: _279  and  _282
REMARK  120  A    between atoms: _282  and  _283
REMARK  121  A    between atoms: _286  and  _288
REMARK  122  A    between atoms: _288  and  _289
REMARK  123  A    between atoms: _288  and  _291
REMARK  124  A    between atoms: _291  and  _292
REMARK  125  A    between atoms: _295  and  _297
REMARK  126  A    between atoms: _297  and  _298
REMARK  127  A    between atoms: _300  and  _302
REMARK  128  A    between atoms: _302  and  _303
REMARK  129  A    between atoms: _302  and  _305
REMARK  130  A    between atoms: _305  and  _306
REMARK  131  A    between atoms: _309  and  _311
REMARK  132  A    between atoms: _311  and  _312
REMARK  133  A    between atoms: _315  and  _317
REMARK  134  A    between atoms: _317  and  _318
REMARK  135  A    between atoms: _317  and  _320
REMARK  136  A    between atoms: _320  and  _321
REMARK  137  A    between atoms: _327  and  _329
REMARK  138  A    between atoms: _329  and  _330
REMARK  139  A    between atoms: _329  and  _332
REMARK  140  A    between atoms: _332  and  _333
REMARK  141  A    between atoms: _336  and  _338
REMARK  142  A    between atoms: _338  and  _339
REMARK  143  A    between atoms: _338  and  _341
REMARK  144  A    between atoms: _341  and  _342
REMARK  145  A    between atoms: _345  and  _347
REMARK  146  A    between atoms: _347  and  _348
REMARK  147  A    between atoms: _347  and  _350
REMARK  148  A    between atoms: _350  and  _351
REMARK  149  A    between atoms: _356  and  _358
REMARK  150  A    between atoms: _358  and  _359
REMARK  151  A    between atoms: _358  and  _361
REMARK  152  A    between atoms: _361  and  _362
REMARK  153  A    between atoms: _365  and  _367
REMARK  154  A    between atoms: _367  and  _368
REMARK  155  A    between atoms: _367  and  _370
REMARK  156  A    between atoms: _370  and  _371
REMARK  157  A    between atoms: _371  and  _372
REMARK  158  A    between atoms: _377  and  _379
REMARK  159  A    between atoms: _379  and  _380
REMARK  160  A    between atoms: _382  and  _384
REMARK  161  A    between atoms: _384  and  _385
REMARK  162  A    between atoms: _384  and  _387
REMARK  163  A    between atoms: _387  and  _388
REMARK  164  A    between atoms: _394  and  _396
REMARK  165  A    between atoms: _396  and  _397
REMARK  166  A    between atoms: _396  and  _399
REMARK  167  A    between atoms: _399  and  _400
REMARK  168  A    between atoms: _403  and  _405
REMARK  169  A    between atoms: _405  and  _406
REMARK  170  A    between atoms: _409  and  _411
REMARK  171  A    between atoms: _411  and  _412
REMARK  172  A    between atoms: _411  and  _414
REMARK  173  A    between atoms: _414  and  _415
REMARK  174  A    between atoms: _418  and  _420
REMARK  175  A    between atoms: _420  and  _421
REMARK  176  A    between atoms: _420  and  _423
REMARK  177  A    between atoms: _423  and  _424
REMARK  178  A    between atoms: _427  and  _429
REMARK  179  A    between atoms: _429  and  _430
REMARK  180  A    between atoms: _432  and  _434
REMARK  181  A    between atoms: _434  and  _435
REMARK  182  A    between atoms: _434  and  _437
REMARK  183  A    between atoms: _437  and  _438
REMARK  184  A    between atoms: _441  and  _443
REMARK  185  A    between atoms: _443  and  _444
REMARK  186  A    between atoms: _443  and  _446
REMARK  187  A    between atoms: _446  and  _447
REMARK  188  A    between atoms: _450  and  _452
REMARK  189  A    between atoms: _452  and  _453
REMARK  190  A    between atoms: _452  and  _455
REMARK  191  A    between atoms: _455  and  _456
REMARK  192  A    between atoms: _459  and  _461
REMARK  193  A    between atoms: _461  and  _462
REMARK  194  A    between atoms: _461  and  _464
REMARK  195  A    between atoms: _464  and  _465
REMARK  196  A    between atoms: _470  and  _471
REMARK  197  A    between atoms: _473  and  _475
REMARK  198  A    between atoms: _475  and  _476
REMARK  199  A    between atoms: _478  and  _480
REMARK  200  A    between atoms: _480  and  _481
REMARK  201  A    between atoms: _480  and  _483
REMARK  202  A    between atoms: _483  and  _484
REMARK  203  A    between atoms: _490  and  _492
REMARK  204  A    between atoms: _492  and  _493
REMARK  205  A    between atoms: _492  and  _495
REMARK  206  A    between atoms: _495  and  _496
REMARK  207  A    between atoms: _502  and  _504
REMARK  208  A    between atoms: _504  and  _505
REMARK  209  A    between atoms: _507  and  _509
REMARK  210  A    between atoms: _509  and  _510
REMARK  211  A    between atoms: _512  and  _514
REMARK  212  A    between atoms: _514  and  _515
REMARK  213  A    between atoms: _514  and  _517
REMARK  214  A    between atoms: _517  and  _518
REMARK  215  A    between atoms: _518  and  _519
REMARK  216  A    between atoms: _524  and  _526
REMARK  217  A    between atoms: _526  and  _527
REMARK  218  A    between atoms: _529  and  _531
REMARK  219  A    between atoms: _531  and  _532
REMARK  220  A    between atoms: _531  and  _534
REMARK  221  A    between atoms: _534  and  _535
REMARK  222  A    between atoms: _538  and  _540
REMARK  223  A    between atoms: _540  and  _541
REMARK  224  A    between atoms: _543  and  _545
REMARK  225  A    between atoms: _545  and  _546
REMARK  226  A    between atoms: _545  and  _548
REMARK  227  A    between atoms: _548  and  _549
REMARK  228  A    between atoms: _552  and  _554
REMARK  229  A    between atoms: _554  and  _555
REMARK  230  A    between atoms: _554  and  _557
REMARK  231  A    between atoms: _557  and  _558
REMARK  232  A    between atoms: _563  and  _565
REMARK  233  A    between atoms: _565  and  _566
REMARK  234  A    between atoms: _565  and  _568
REMARK  235  A    between atoms: _568  and  _569
REMARK  236  A    between atoms: _572  and  _574
REMARK  237  A    between atoms: _574  and  _575
REMARK  238  A    between atoms: _577  and  _579
REMARK  239  A    between atoms: _579  and  _580
REMARK  240  A    between atoms: _579  and  _582
REMARK  241  A    between atoms: _582  and  _583
REMARK                            x       y       z     vdW  Elec       q    Type
REMARK                         _______ _______ _______ _____ _____    ______ ____
ROOT
ATOM      1  C   GLY A   4      13.043  36.457   8.494  0.00  0.00    +0.243 C 
ATOM      2  O   GLY A   4      14.064  37.008   8.015  0.00  0.00    -0.273 OA
ATOM      3  N   LEU A   5      12.198  35.675   7.751  0.00  0.00    -0.297 N 
ATOM      4  H   LEU A   5      11.341  35.304   8.208  0.00  0.00    +0.150 HD
ENDROOT
BRANCH   1   5
ATOM      5  CA  GLY A   4      12.619  36.588   9.968  0.00  0.00    +0.176 C 
BRANCH   5   7
ATOM      6  C   LEU A   3      14.424  35.406  11.205  0.00  0.00    +0.241 C 
ATOM      7  N   GLY A   4      13.788  36.566  10.877  0.00  0.00    -0.295 N 
ATOM      8  H   GLY A   4      14.134  37.462  11.277  0.00  0.00    +0.150 HD
ATOM      9  O   LEU A   3      14.057  34.309  10.706  0.00  0.00    -0.273 OA
BRANCH   6  10
ATOM     10  CA  LEU A   3      15.577  35.512  12.238  0.00  0.00    +0.149 C 
BRANCH  10  13
ATOM     11  C   LEU A   2      15.048  35.774  14.658  0.00  0.00    +0.241 C 
ATOM     12  O   LEU A   2      15.645  36.864  14.734  0.00  0.00    -0.273 OA
ATOM     13  N   LEU A   3      15.025  35.014  13.526  0.00  0.00    -0.297 N 
ATOM     14  H   LEU A   3      14.610  34.061  13.564  0.00  0.00    +0.150 HD
BRANCH  11  15
ATOM     15  CA  LEU A   2      14.228  35.252  15.856  0.00  0.00    +0.149 C 
BRANCH  15  18
ATOM     16  C   GLY A   1      15.345  34.773  18.053  0.00  0.00    +0.240 C 
ATOM     17  O   GLY A   1      15.285  33.539  17.937  0.00  0.00    -0.274 OA
ATOM     18  N   LEU A   2      14.905  35.652  17.102  0.00  0.00    -0.297 N 
ATOM     19  H   LEU A   2      15.058  36.667  17.269  0.00  0.00    +0.150 HD
BRANCH  16  20
ATOM     20  CA  GLY A   1      15.887  35.438  19.342  0.00  0.00    +0.169 C 
BRANCH  20  21
ATOM     21  N   GLY A   1      16.502  34.401  20.205  0.00  0.00    -0.236 NA
ATOM     22  H   GLY A   1      16.120  33.434  20.169  0.00  0.00    +0.142 HD
ENDBRANCH  20  21
ENDBRANCH  16  20
ENDBRANCH  15  18
BRANCH  15  23
ATOM     23  CB  LEU A   2      12.738  35.756  15.775  0.00  0.00    +0.029 C 
BRANCH  23  24
ATOM     24  CG  LEU A   2      11.655  34.713  16.259  0.00  0.00    +0.002 C 
ATOM     25  CD2 LEU A   2      11.816  34.451  17.736  0.00  0.00    +0.000 C 
ATOM     26  CD1 LEU A   2      10.232  35.014  15.806  0.00  0.00    +0.000 C 
ENDBRANCH  23  24
ENDBRANCH  15  23
ENDBRANCH  11  15
ENDBRANCH  10  13
BRANCH  10  27
ATOM     27  CB  LEU A   3      16.876  34.790  11.821  0.00  0.00    +0.029 C 
BRANCH  27  28
ATOM     28  CG  LEU A   3      17.645  35.335  10.578  0.00  0.00    +0.002 C 
ATOM     29  CD2 LEU A   3      19.188  35.083  10.705  0.00  0.00    +0.000 C 
ATOM     30  CD1 LEU A   3      17.127  34.801   9.259  0.00  0.00    +0.000 C 
ENDBRANCH  27  28
ENDBRANCH  10  27
ENDBRANCH   6  10
ENDBRANCH   5   7
ENDBRANCH   1   5
BRANCH   3  31
ATOM     31  CA  LEU A   5      12.441  35.329   6.328  0.00  0.00    +0.149 C 
BRANCH  31  32
ATOM     32  C   LEU A   5      11.168  35.569   5.428  0.00  0.00    +0.241 C 
ATOM     33  N   ALA A   6      10.110  36.253   5.963  0.00  0.00    -0.297 N 
ATOM     34  H   ALA A   6      10.089  36.428   6.988  0.00  0.00    +0.150 HD
ATOM     35  O   LEU A   5      11.179  35.114   4.268  0.00  0.00    -0.273 OA
BRANCH  33  36
ATOM     36  CA  ALA A   6       8.996  36.750   5.128  0.00  0.00    +0.149 C 
ATOM     37  CB  ALA A   6       7.701  36.952   5.971  0.00  0.00    +0.031 C 
BRANCH  36  38
ATOM     38  C   ALA A   6       9.477  38.011   4.348  0.00  0.00    +0.241 C 
ATOM     39  O   ALA A   6      10.688  38.314   4.298  0.00  0.00    -0.273 OA
ATOM     40  N   PHE A   7       8.513  38.711   3.685  0.00  0.00    -0.298 N 
ATOM     41  H   PHE A   7       7.511  38.445   3.764  0.00  0.00    +0.150 HD
BRANCH  40  42
ATOM     42  CA  PHE A   7       8.933  39.867   2.845  0.00  0.00    +0.141 C 
BRANCH  42  43
ATOM     43  C   PHE A   7       9.181  41.100   3.731  0.00  0.00    +0.227 C 
ATOM     44  O   PHE A   7       8.544  41.284   4.811  0.00  0.00    -0.286 OA
ENDBRANCH  42  43
BRANCH  42  45
ATOM     45  CB  PHE A   7       7.843  40.098   1.724  0.00  0.00    +0.054 C 
BRANCH  45  46
ATOM     46  CG  PHE A   7       7.862  38.910   0.748  0.00  0.00    -0.020 A 
ATOM     47  CD2 PHE A   7       7.058  37.794   0.966  0.00  0.00    -0.004 A 
ATOM     48  CE2 PHE A   7       7.205  36.667   0.130  0.00  0.00    -0.000 A 
ATOM     49  CZ  PHE A   7       8.064  36.667  -0.952  0.00  0.00    -0.000 A 
ATOM     50  CE1 PHE A   7       8.832  37.795  -1.202  0.00  0.00    -0.000 A 
ATOM     51  CD1 PHE A   7       8.726  38.915  -0.365  0.00  0.00    -0.004 A 
ENDBRANCH  45  46
ENDBRANCH  42  45
ENDBRANCH  40  42
ENDBRANCH  36  38
ENDBRANCH  33  36
ENDBRANCH  31  32
BRANCH  31  52
ATOM     52  CB  LEU A   5      12.976  33.898   6.184  0.00  0.00    +0.029 C 
BRANCH  52  53
ATOM     53  CG  LEU A   5      14.395  33.664   6.793  0.00  0.00    +0.002 C 
ATOM     54  CD2 LEU A   5      14.702  32.169   6.910  0.00  0.00    +0.000 C 
ATOM     55  CD1 LEU A   5      15.501  34.315   5.915  0.00  0.00    +0.000 C 
ENDBRANCH  52  53
ENDBRANCH  31  52
ENDBRANCH   3  31
TORSDOF 22
REMARK  Name = ../refined-set-2016/1gvw/1gvw_pocket.pdb
REMARK  241 active torsions:
REMARK  status: ('A' for Active; 'I' for Inactive)
REMARK    1  A    between atoms: _1  and  _3
REMARK    2  A    between atoms: _3  and  _4
REMARK    3  A    between atoms: _3  and  _6
REMARK    4  A    between atoms: _6  and  _7
REMARK    5  A    between atoms: _10  and  _12
REMARK    6  A    between atoms: _12  and  _13
REMARK    7  A    between atoms: _12  and  _15
REMARK    8  A    between atoms: _15  and  _16
REMARK    9  A    between atoms: _19  and  _21
REMARK   10  A    between atoms: _21  and  _22
REMARK   11  A    between atoms: _21  and  _24
REMARK   12  A    between atoms: _24  and  _25
REMARK   13  A    between atoms: _28  and  _30
REMARK   14  A    between atoms: _30  and  _31
REMARK   15  A    between atoms: _30  and  _33
REMARK   16  A    between atoms: _33  and  _34
REMARK   17  A    between atoms: _37  and  _39
REMARK   18  A    between atoms: _39  and  _40
REMARK   19  A    between atoms: _39  and  _42
REMARK   20  A    between atoms: _42  and  _43
REMARK   21  A    between atoms: _46  and  _48
REMARK   22  A    between atoms: _48  and  _49
REMARK   23  A    between atoms: _52  and  _54
REMARK   24  A    between atoms: _54  and  _55
REMARK   25  A    between atoms: _54  and  _57
REMARK   26  A    between atoms: _57  and  _58
REMARK   27  A    between atoms: _63  and  _64
REMARK   28  A    between atoms: _66  and  _68
REMARK   29  A    between atoms: _68  and  _69
REMARK   30  A    between atoms: _68  and  _71
REMARK   31  A    between atoms: _71  and  _72
REMARK   32  A    between atoms: _75  and  _77
REMARK   33  A    between atoms: _77  and  _78
REMARK   34  A    between atoms: _77  and  _80
REMARK   35  A    between atoms: _80  and  _81
REMARK   36  A    between atoms: _87  and  _89
REMARK   37  A    between atoms: _89  and  _90
REMARK   38  A    between atoms: _89  and  _92
REMARK   39  A    between atoms: _92  and  _93
REMARK   40  A    between atoms: _96  and  _98
REMARK   41  A    between atoms: _98  and  _99
REMARK   42  A    between atoms: _98  and  _101
REMARK   43  A    between atoms: _101  and  _102
REMARK   44  A    between atoms: _105  and  _107
REMARK   45  A    between atoms: _107  and  _108
REMARK   46  A    between atoms: _110  and  _112
REMARK   47  A    between atoms: _112  and  _113
REMARK   48  A    between atoms: _112  and  _115
REMARK   49  A    between atoms: _115  and  _116
REMARK   50  A    between atoms: _118  and  _120
REMARK   51  A    between atoms: _120  and  _121
REMARK   52  A    between atoms: _120  and  _123
REMARK   53  A    between atoms: _123  and  _124
REMARK   54  A    between atoms: _126  and  _128
REMARK   55  A    between atoms: _128  and  _129
REMARK   56  A    between atoms: _128  and  _131
REMARK   57  A    between atoms: _131  and  _132
REMARK   58  A    between atoms: _135  and  _137
REMARK   59  A    between atoms: _137  and  _138
REMARK   60  A    between atoms: _137  and  _140
REMARK   61  A    between atoms: _140  and  _141
REMARK   62  A    between atoms: _151  and  _153
REMARK   63  A    between atoms: _153  and  _154
REMARK   64  A    between atoms: _153  and  _156
REMARK   65  A    between atoms: _156  and  _157
REMARK   66  A    between atoms: _159  and  _161
REMARK   67  A    between atoms: _161  and  _162
REMARK   68  A    between atoms: _161  and  _164
REMARK   69  A    between atoms: _164  and  _165
REMARK   70  A    between atoms: _168  and  _170
REMARK   71  A    between atoms: _170  and  _171
REMARK   72  A    between atoms: _170  and  _173
REMARK   73  A    between atoms: _173  and  _174
REMARK   74  A    between atoms: _176  and  _178
REMARK   75  A    between atoms: _178  and  _179
REMARK   76  A    between atoms: _178  and  _181
REMARK   77  A    between atoms: _181  and  _182
REMARK   78  A    between atoms: _187  and  _188
REMARK   79  A    between atoms: _190  and  _192
REMARK   80  A    between atoms: _192  and  _193
REMARK   81  A    between atoms: _195  and  _197
REMARK   82  A    between atoms: _197  and  _198
REMARK   83  A    between atoms: _197  and  _200
REMARK   84  A    between atoms: _200  and  _201
REMARK   85  A    between atoms: _204  and  _206
REMARK   86  A    between atoms: _206  and  _207
REMARK   87  A    between atoms: _209  and  _211
REMARK   88  A    between atoms: _211  and  _212
REMARK   89  A    between atoms: _211  and  _214
REMARK   90  A    between atoms: _214  and  _215
REMARK   91  A    between atoms: _217  and  _219
REMARK   92  A    between atoms: _219  and  _220
REMARK   93  A    between atoms: _219  and  _222
REMARK   94  A    between atoms: _222  and  _223
REMARK   95  A    between atoms: _225  and  _227
REMARK   96  A    between atoms: _227  and  _228
REMARK   97  A    between atoms: _227  and  _230
REMARK   98  A    between atoms: _230  and  _231
REMARK   99  A    between atoms: _233  and  _235
REMARK  100  A    between atoms: _235  and  _236
REMARK  101  A    between atoms: _235  and  _238
REMARK  102  A    between atoms: _238  and  _239
REMARK  103  A    between atoms: _245  and  _247
REMARK  104  A    between atoms: _247  and  _248
REMARK  105  A    between atoms: _247  and  _250
REMARK  106  A    between atoms: _250  and  _251
REMARK  107  A    between atoms: _254  and  _256
REMARK  108  A    between atoms: _256  and  _257
REMARK  109  A    between atoms: _256  and  _259
REMARK  110  A    between atoms: _259  and  _260
REMARK  111  A    between atoms: _263  and  _265
REMARK  112  A    between atoms: _265  and  _266
REMARK  113  A    between atoms: _265  and  _268
REMARK  114  A    between atoms: _268  and  _269
REMARK  115  A    between atoms: _272  and  _274
REMARK  116  A    between atoms: _274  and  _275
REMARK  117  A    between atoms: _277  and  _279
REMARK  118  A    between atoms: _279  and  _280
REMARK  119  A    between atoms: _279  and  _282
REMARK  120  A    between atoms: _282  and  _283
REMARK  121  A    between atoms: _286  and  _288
REMARK  122  A    between atoms: _288  and  _289
REMARK  123  A    between atoms: _288  and  _291
REMARK  124  A    between atoms: _291  and  _292
REMARK  125  A    between atoms: _295  and  _297
REMARK  126  A    between atoms: _297  and  _298
REMARK  127  A    between atoms: _300  and  _302
REMARK  128  A    between atoms: _302  and  _303
REMARK  129  A    between atoms: _302  and  _305
REMARK  130  A    between atoms: _305  and  _306
REMARK  131  A    between atoms: _309  and  _311
REMARK  132  A    between atoms: _311  and  _312
REMARK  133  A    between atoms: _315  and  _317
REMARK  134  A    between atoms: _317  and  _318
REMARK  135  A    between atoms: _317  and  _320
REMARK  136  A    between atoms: _320  and  _321
REMARK  137  A    between atoms: _327  and  _329
REMARK  138  A    between atoms: _329  and  _330
REMARK  139  A    between atoms: _329  and  _332
REMARK  140  A    between atoms: _332  and  _333
REMARK  141  A    between atoms: _336  and  _338
REMARK  142  A    between atoms: _338  and  _339
REMARK  143  A    between atoms: _338  and  _341
REMARK  144  A    between atoms: _341  and  _342
REMARK  145  A    between atoms: _345  and  _347
REMARK  146  A    between atoms: _347  and  _348
REMARK  147  A    between atoms: _347  and  _350
REMARK  148  A    between atoms: _350  and  _351
REMARK  149  A    between atoms: _356  and  _358
REMARK  150  A    between atoms: _358  and  _359
REMARK  151  A    between atoms: _358  and  _361
REMARK  152  A    between atoms: _361  and  _362
REMARK  153  A    between atoms: _365  and  _367
REMARK  154  A    between atoms: _367  and  _368
REMARK  155  A    between atoms: _367  and  _370
REMARK  156  A    between atoms: _370  and  _371
REMARK  157  A    between atoms: _371  and  _372
REMARK  158  A    between atoms: _377  and  _379
REMARK  159  A    between atoms: _379  and  _380
REMARK  160  A    between atoms: _382  and  _384
REMARK  161  A    between atoms: _384  and  _385
REMARK  162  A    between atoms: _384  and  _387
REMARK  163  A    between atoms: _387  and  _388
REMARK  164  A    between atoms: _394  and  _396
REMARK  165  A    between atoms: _396  and  _397
REMARK  166  A    between atoms: _396  and  _399
REMARK  167  A    between atoms: _399  and  _400
REMARK  168  A    between atoms: _403  and  _405
REMARK  169  A    between atoms: _405  and  _406
REMARK  170  A    between atoms: _409  and  _411
REMARK  171  A    between atoms: _411  and  _412
REMARK  172  A    between atoms: _411  and  _414
REMARK  173  A    between atoms: _414  and  _415
REMARK  174  A    between atoms: _418  and  _420
REMARK  175  A    between atoms: _420  and  _421
REMARK  176  A    between atoms: _420  and  _423
REMARK  177  A    between atoms: _423  and  _424
REMARK  178  A    between atoms: _427  and  _429
REMARK  179  A    between atoms: _429  and  _430
REMARK  180  A    between atoms: _432  and  _434
REMARK  181  A    between atoms: _434  and  _435
REMARK  182  A    between atoms: _434  and  _437
REMARK  183  A    between atoms: _437  and  _438
REMARK  184  A    between atoms: _441  and  _443
REMARK  185  A    between atoms: _443  and  _444
REMARK  186  A    between atoms: _443  and  _446
REMARK  187  A    between atoms: _446  and  _447
REMARK  188  A    between atoms: _450  and  _452
REMARK  189  A    between atoms: _452  and  _453
REMARK  190  A    between atoms: _452  and  _455
REMARK  191  A    between atoms: _455  and  _456
REMARK  192  A    between atoms: _459  and  _461
REMARK  193  A    between atoms: _461  and  _462
REMARK  194  A    between atoms: _461  and  _464
REMARK  195  A    between atoms: _464  and  _465
REMARK  196  A    between atoms: _470  and  _471
REMARK  197  A    between atoms: _473  and  _475
REMARK  198  A    between atoms: _475  and  _476
REMARK  199  A    between atoms: _478  and  _480
REMARK  200  A    between atoms: _480  and  _481
REMARK  201  A    between atoms: _480  and  _483
REMARK  202  A    between atoms: _483  and  _484
REMARK  203  A    between atoms: _490  and  _492
REMARK  204  A    between atoms: _492  and  _493
REMARK  205  A    between atoms: _492  and  _495
REMARK  206  A    between atoms: _495  and  _496
REMARK  207  A    between atoms: _502  and  _504
REMARK  208  A    between atoms: _504  and  _505
REMARK  209  A    between atoms: _507  and  _509
REMARK  210  A    between atoms: _509  and  _510
REMARK  211  A    between atoms: _512  and  _514
REMARK  212  A    between atoms: _514  and  _515
REMARK  213  A    between atoms: _514  and  _517
REMARK  214  A    between atoms: _517  and  _518
REMARK  215  A    between atoms: _518  and  _519
REMARK  216  A    between atoms: _524  and  _526
REMARK  217  A    between atoms: _526  and  _527
REMARK  218  A    between atoms: _529  and  _531
REMARK  219  A    between atoms: _531  and  _532
REMARK  220  A    between atoms: _531  and  _534
REMARK  221  A    between atoms: _534  and  _535
REMARK  222  A    between atoms: _538  and  _540
REMARK  223  A    between atoms: _540  and  _541
REMARK  224  A    between atoms: _543  and  _545
REMARK  225  A    between atoms: _545  and  _546
REMARK  226  A    between atoms: _545  and  _548
REMARK  227  A    between atoms: _548  and  _549
REMARK  228  A    between atoms: _552  and  _554
REMARK  229  A    between atoms: _554  and  _555
REMARK  230  A    between atoms: _554  and  _557
REMARK  231  A    between atoms: _557  and  _558
REMARK  232  A    between atoms: _563  and  _565
REMARK  233  A    between atoms: _565  and  _566
REMARK  234  A    between atoms: _565  and  _568
REMARK  235  A    between atoms: _568  and  _569
REMARK  236  A    between atoms: _572  and  _574
REMARK  237  A    between atoms: _574  and  _575
REMARK  238  A    between atoms: _577  and  _579
REMARK  239  A    between atoms: _579  and  _580
REMARK  240  A    between atoms: _579  and  _582
REMARK  241  A    between atoms: _582  and  _583
REMARK                            x       y       z     vdW  Elec       q    Type
REMARK                         _______ _______ _______ _____ _____    ______ ____
ROOT
ATOM      1  C   LEU A   2       7.318  43.689   8.502  0.00  0.00    +0.241 C 
ATOM      2  O   LEU A   2       6.953  43.552   9.687  0.00  0.00    -0.273 OA
ATOM      3  N   ASN A   3       8.539  44.166   8.161  0.00  0.00    -0.297 N 
ATOM      4  H   ASN A   3       8.794  44.267   7.158  0.00  0.00    +0.150 HD
ENDROOT
BRANCH   3   5
ATOM      5  CA  ASN A   3       9.518  44.546   9.218  0.00  0.00    +0.158 C 
BRANCH   5   6
ATOM      6  C   ASN A   3       8.960  45.673  10.089  0.00  0.00    +0.241 C 
ATOM      7  N   THR A   4       9.220  45.612  11.436  0.00  0.00    -0.296 N 
ATOM      8  H   THR A   4       9.857  44.879  11.808  0.00  0.00    +0.150 HD
ATOM      9  O   ASN A   3       8.307  46.626   9.591  0.00  0.00    -0.273 OA
BRANCH   7  10
ATOM     10  CA  THR A   4       8.592  46.594  12.370  0.00  0.00    +0.164 C 
BRANCH  10  11
ATOM     11  CB  THR A   4       8.034  45.976  13.670  0.00  0.00    +0.136 C 
ATOM     12  CG2 THR A   4       7.161  44.725  13.402  0.00  0.00    +0.034 C 
BRANCH  11  13
ATOM     13  OG1 THR A   4       9.131  45.666  14.607  0.00  0.00    -0.382 OA
ATOM     14  HG1 THR A   4       9.752  45.021  14.184  0.00  0.00    +0.210 HD
ENDBRANCH  11  13
ENDBRANCH  10  11
BRANCH  10  15
ATOM     15  C   THR A   4       9.480  47.808  12.732  0.00  0.00    +0.229 C 
ATOM     16  O   THR A   4       9.051  48.614  13.567  0.00  0.00    -0.286 OA
ENDBRANCH  10  15
ENDBRANCH   7  10
ENDBRANCH   5   6
BRANCH   5  17
ATOM     17  CB  ASN A   3      10.865  44.914   8.512  0.00  0.00    +0.114 C 
BRANCH  17  18
ATOM     18  CG  ASN A   3      11.935  45.288   9.576  0.00  0.00    +0.222 C 
ATOM     19  OD1 ASN A   3      12.598  44.338  10.185  0.00  0.00    -0.275 OA
ATOM     20  ND2 ASN A   3      12.115  46.543   9.840  0.00  0.00    -0.329 N 
ATOM     21 HD21 ASN A   3      12.809  46.829  10.560  0.00  0.00    +0.145 HD
ATOM     22 HD22 ASN A   3      11.566  47.265   9.332  0.00  0.00    +0.145 HD
ENDBRANCH  17  18
ENDBRANCH   5  17
ENDBRANCH   3   5
BRANCH   1  23
ATOM     23  CA  LEU A   2       6.321  43.273   7.355  0.00  0.00    +0.149 C 
BRANCH  23  25
ATOM     24  C   THR A   1       6.613  44.733   5.375  0.00  0.00    +0.241 C 
ATOM     25  N   LEU A   2       6.869  43.551   6.000  0.00  0.00    -0.297 N 
ATOM     26  H   LEU A   2       7.454  42.834   5.525  0.00  0.00    +0.150 HD
ATOM     27  O   THR A   1       5.843  45.593   5.896  0.00  0.00    -0.274 OA
BRANCH  24  28
ATOM     28  CA  THR A   1       7.274  45.009   4.003  0.00  0.00    +0.172 C 
BRANCH  28  29
ATOM     29  CB  THR A   1       6.197  44.908   2.838  0.00  0.00    +0.135 C 
ATOM     30  CG2 THR A   1       5.483  43.557   2.793  0.00  0.00    +0.034 C 
BRANCH  29  31
ATOM     31  OG1 THR A   1       5.177  45.907   3.008  0.00  0.00    -0.383 OA
ATOM     32  HG1 THR A   1       4.725  45.770   3.878  0.00  0.00    +0.210 HD
ENDBRANCH  29  31
ENDBRANCH  28  29
BRANCH  28  33
ATOM     33  N   THR A   1       8.424  44.161   3.669  0.00  0.00    -0.236 NA
ATOM     34  H   THR A   1       8.387  43.590   2.800  0.00  0.00    +0.142 HD
ENDBRANCH  28  33
ENDBRANCH  24  28
ENDBRANCH  23  25
BRANCH  23  35
ATOM     35  CB  LEU A   2       5.946  41.800   7.542  0.00  0.00    +0.029 C 
BRANCH  35  36
ATOM     36  CG  LEU A   2       4.778  41.309   6.634  0.00  0.00    +0.002 C 
ATOM     37  CD2 LEU A   2       4.495  39.828   6.976  0.00  0.00    +0.000 C 
ATOM     38  CD1 LEU A   2       3.537  42.206   6.708  0.00  0.00    +0.000 C 
ENDBRANCH  35  36
ENDBRANCH  23  35
ENDBRANCH   1  23
TORSDOF 16
REMARK  Name = ../refined-set-2016/1gvw/1gvw_pocket.pdb
REMARK  241 active torsions:
REMARK  status: ('A' for Active; 'I' for Inactive)
REMARK    1  A    between atoms: _1  and  _3
REMARK    2  A    between atoms: _3  and  _4
REMARK    3  A    between atoms: _3  and  _6
REMARK    4  A    between atoms: _6  and  _7
REMARK    5  A    between atoms: _10  and  _12
REMARK    6  A    between atoms: _12  and  _13
REMARK    7  A    between atoms: _12  and  _15
REMARK    8  A    between atoms: _15  and  _16
REMARK    9  A    between atoms: _19  and  _21
REMARK   10  A    between atoms: _21  and  _22
REMARK   11  A    between atoms: _21  and  _24
REMARK   12  A    between atoms: _24  and  _25
REMARK   13  A    between atoms: _28  and  _30
REMARK   14  A    between atoms: _30  and  _31
REMARK   15  A    between atoms: _30  and  _33
REMARK   16  A    between atoms: _33  and  _34
REMARK   17  A    between atoms: _37  and  _39
REMARK   18  A    between atoms: _39  and  _40
REMARK   19  A    between atoms: _39  and  _42
REMARK   20  A    between atoms: _42  and  _43
REMARK   21  A    between atoms: _46  and  _48
REMARK   22  A    between atoms: _48  and  _49
REMARK   23  A    between atoms: _52  and  _54
REMARK   24  A    between atoms: _54  and  _55
REMARK   25  A    between atoms: _54  and  _57
REMARK   26  A    between atoms: _57  and  _58
REMARK   27  A    between atoms: _63  and  _64
REMARK   28  A    between atoms: _66  and  _68
REMARK   29  A    between atoms: _68  and  _69
REMARK   30  A    between atoms: _68  and  _71
REMARK   31  A    between atoms: _71  and  _72
REMARK   32  A    between atoms: _75  and  _77
REMARK   33  A    between atoms: _77  and  _78
REMARK   34  A    between atoms: _77  and  _80
REMARK   35  A    between atoms: _80  and  _81
REMARK   36  A    between atoms: _87  and  _89
REMARK   37  A    between atoms: _89  and  _90
REMARK   38  A    between atoms: _89  and  _92
REMARK   39  A    between atoms: _92  and  _93
REMARK   40  A    between atoms: _96  and  _98
REMARK   41  A    between atoms: _98  and  _99
REMARK   42  A    between atoms: _98  and  _101
REMARK   43  A    between atoms: _101  and  _102
REMARK   44  A    between atoms: _105  and  _107
REMARK   45  A    between atoms: _107  and  _108
REMARK   46  A    between atoms: _110  and  _112
REMARK   47  A    between atoms: _112  and  _113
REMARK   48  A    between atoms: _112  and  _115
REMARK   49  A    between atoms: _115  and  _116
REMARK   50  A    between atoms: _118  and  _120
REMARK   51  A    between atoms: _120  and  _121
REMARK   52  A    between atoms: _120  and  _123
REMARK   53  A    between atoms: _123  and  _124
REMARK   54  A    between atoms: _126  and  _128
REMARK   55  A    between atoms: _128  and  _129
REMARK   56  A    between atoms: _128  and  _131
REMARK   57  A    between atoms: _131  and  _132
REMARK   58  A    between atoms: _135  and  _137
REMARK   59  A    between atoms: _137  and  _138
REMARK   60  A    between atoms: _137  and  _140
REMARK   61  A    between atoms: _140  and  _141
REMARK   62  A    between atoms: _151  and  _153
REMARK   63  A    between atoms: _153  and  _154
REMARK   64  A    between atoms: _153  and  _156
REMARK   65  A    between atoms: _156  and  _157
REMARK   66  A    between atoms: _159  and  _161
REMARK   67  A    between atoms: _161  and  _162
REMARK   68  A    between atoms: _161  and  _164
REMARK   69  A    between atoms: _164  and  _165
REMARK   70  A    between atoms: _168  and  _170
REMARK   71  A    between atoms: _170  and  _171
REMARK   72  A    between atoms: _170  and  _173
REMARK   73  A    between atoms: _173  and  _174
REMARK   74  A    between atoms: _176  and  _178
REMARK   75  A    between atoms: _178  and  _179
REMARK   76  A    between atoms: _178  and  _181
REMARK   77  A    between atoms: _181  and  _182
REMARK   78  A    between atoms: _187  and  _188
REMARK   79  A    between atoms: _190  and  _192
REMARK   80  A    between atoms: _192  and  _193
REMARK   81  A    between atoms: _195  and  _197
REMARK   82  A    between atoms: _197  and  _198
REMARK   83  A    between atoms: _197  and  _200
REMARK   84  A    between atoms: _200  and  _201
REMARK   85  A    between atoms: _204  and  _206
REMARK   86  A    between atoms: _206  and  _207
REMARK   87  A    between atoms: _209  and  _211
REMARK   88  A    between atoms: _211  and  _212
REMARK   89  A    between atoms: _211  and  _214
REMARK   90  A    between atoms: _214  and  _215
REMARK   91  A    between atoms: _217  and  _219
REMARK   92  A    between atoms: _219  and  _220
REMARK   93  A    between atoms: _219  and  _222
REMARK   94  A    between atoms: _222  and  _223
REMARK   95  A    between atoms: _225  and  _227
REMARK   96  A    between atoms: _227  and  _228
REMARK   97  A    between atoms: _227  and  _230
REMARK   98  A    between atoms: _230  and  _231
REMARK   99  A    between atoms: _233  and  _235
REMARK  100  A    between atoms: _235  and  _236
REMARK  101  A    between atoms: _235  and  _238
REMARK  102  A    between atoms: _238  and  _239
REMARK  103  A    between atoms: _245  and  _247
REMARK  104  A    between atoms: _247  and  _248
REMARK  105  A    between atoms: _247  and  _250
REMARK  106  A    between atoms: _250  and  _251
REMARK  107  A    between atoms: _254  and  _256
REMARK  108  A    between atoms: _256  and  _257
REMARK  109  A    between atoms: _256  and  _259
REMARK  110  A    between atoms: _259  and  _260
REMARK  111  A    between atoms: _263  and  _265
REMARK  112  A    between atoms: _265  and  _266
REMARK  113  A    between atoms: _265  and  _268
REMARK  114  A    between atoms: _268  and  _269
REMARK  115  A    between atoms: _272  and  _274
REMARK  116  A    between atoms: _274  and  _275
REMARK  117  A    between atoms: _277  and  _279
REMARK  118  A    between atoms: _279  and  _280
REMARK  119  A    between atoms: _279  and  _282
REMARK  120  A    between atoms: _282  and  _283
REMARK  121  A    between atoms: _286  and  _288
REMARK  122  A    between atoms: _288  and  _289
REMARK  123  A    between atoms: _288  and  _291
REMARK  124  A    between atoms: _291  and  _292
REMARK  125  A    between atoms: _295  and  _297
REMARK  126  A    between atoms: _297  and  _298
REMARK  127  A    between atoms: _300  and  _302
REMARK  128  A    between atoms: _302  and  _303
REMARK  129  A    between atoms: _302  and  _305
REMARK  130  A    between atoms: _305  and  _306
REMARK  131  A    between atoms: _309  and  _311
REMARK  132  A    between atoms: _311  and  _312
REMARK  133  A    between atoms: _315  and  _317
REMARK  134  A    between atoms: _317  and  _318
REMARK  135  A    between atoms: _317  and  _320
REMARK  136  A    between atoms: _320  and  _321
REMARK  137  A    between atoms: _327  and  _329
REMARK  138  A    between atoms: _329  and  _330
REMARK  139  A    between atoms: _329  and  _332
REMARK  140  A    between atoms: _332  and  _333
REMARK  141  A    between atoms: _336  and  _338
REMARK  142  A    between atoms: _338  and  _339
REMARK  143  A    between atoms: _338  and  _341
REMARK  144  A    between atoms: _341  and  _342
REMARK  145  A    between atoms: _345  and  _347
REMARK  146  A    between atoms: _347  and  _348
REMARK  147  A    between atoms: _347  and  _350
REMARK  148  A    between atoms: _350  and  _351
REMARK  149  A    between atoms: _356  and  _358
REMARK  150  A    between atoms: _358  and  _359
REMARK  151  A    between atoms: _358  and  _361
REMARK  152  A    between atoms: _361  and  _362
REMARK  153  A    between atoms: _365  and  _367
REMARK  154  A    between atoms: _367  and  _368
REMARK  155  A    between atoms: _367  and  _370
REMARK  156  A    between atoms: _370  and  _371
REMARK  157  A    between atoms: _371  and  _372
REMARK  158  A    between atoms: _377  and  _379
REMARK  159  A    between atoms: _379  and  _380
REMARK  160  A    between atoms: _382  and  _384
REMARK  161  A    between atoms: _384  and  _385
REMARK  162  A    between atoms: _384  and  _387
REMARK  163  A    between atoms: _387  and  _388
REMARK  164  A    between atoms: _394  and  _396
REMARK  165  A    between atoms: _396  and  _397
REMARK  166  A    between atoms: _396  and  _399
REMARK  167  A    between atoms: _399  and  _400
REMARK  168  A    between atoms: _403  and  _405
REMARK  169  A    between atoms: _405  and  _406
REMARK  170  A    between atoms: _409  and  _411
REMARK  171  A    between atoms: _411  and  _412
REMARK  172  A    between atoms: _411  and  _414
REMARK  173  A    between atoms: _414  and  _415
REMARK  174  A    between atoms: _418  and  _420
REMARK  175  A    between atoms: _420  and  _421
REMARK  176  A    between atoms: _420  and  _423
REMARK  177  A    between atoms: _423  and  _424
REMARK  178  A    between atoms: _427  and  _429
REMARK  179  A    between atoms: _429  and  _430
REMARK  180  A    between atoms: _432  and  _434
REMARK  181  A    between atoms: _434  and  _435
REMARK  182  A    between atoms: _434  and  _437
REMARK  183  A    between atoms: _437  and  _438
REMARK  184  A    between atoms: _441  and  _443
REMARK  185  A    between atoms: _443  and  _444
REMARK  186  A    between atoms: _443  and  _446
REMARK  187  A    between atoms: _446  and  _447
REMARK  188  A    between atoms: _450  and  _452
REMARK  189  A    between atoms: _452  and  _453
REMARK  190  A    between atoms: _452  and  _455
REMARK  191  A    between atoms: _455  and  _456
REMARK  192  A    between atoms: _459  and  _461
REMARK  193  A    between atoms: _461  and  _462
REMARK  194  A    between atoms: _461  and  _464
REMARK  195  A    between atoms: _464  and  _465
REMARK  196  A    between atoms: _470  and  _471
REMARK  197  A    between atoms: _473  and  _475
REMARK  198  A    between atoms: _475  and  _476
REMARK  199  A    between atoms: _478  and  _480
REMARK  200  A    between atoms: _480  and  _481
REMARK  201  A    between atoms: _480  and  _483
REMARK  202  A    between atoms: _483  and  _484
REMARK  203  A    between atoms: _490  and  _492
REMARK  204  A    between atoms: _492  and  _493
REMARK  205  A    between atoms: _492  and  _495
REMARK  206  A    between atoms: _495  and  _496
REMARK  207  A    between atoms: _502  and  _504
REMARK  208  A    between atoms: _504  and  _505
REMARK  209  A    between atoms: _507  and  _509
REMARK  210  A    between atoms: _509  and  _510
REMARK  211  A    between atoms: _512  and  _514
REMARK  212  A    between atoms: _514  and  _515
REMARK  213  A    between atoms: _514  and  _517
REMARK  214  A    between atoms: _517  and  _518
REMARK  215  A    between atoms: _518  and  _519
REMARK  216  A    between atoms: _524  and  _526
REMARK  217  A    between atoms: _526  and  _527
REMARK  218  A    between atoms: _529  and  _531
REMARK  219  A    between atoms: _531  and  _532
REMARK  220  A    between atoms: _531  and  _534
REMARK  221  A    between atoms: _534  and  _535
REMARK  222  A    between atoms: _538  and  _540
REMARK  223  A    between atoms: _540  and  _541
REMARK  224  A    between atoms: _543  and  _545
REMARK  225  A    between atoms: _545  and  _546
REMARK  226  A    between atoms: _545  and  _548
REMARK  227  A    between atoms: _548  and  _549
REMARK  228  A    between atoms: _552  and  _554
REMARK  229  A    between atoms: _554  and  _555
REMARK  230  A    between atoms: _554  and  _557
REMARK  231  A    between atoms: _557  and  _558
REMARK  232  A    between atoms: _563  and  _565
REMARK  233  A    between atoms: _565  and  _566
REMARK  234  A    between atoms: _565  and  _568
REMARK  235  A    between atoms: _568  and  _569
REMARK  236  A    between atoms: _572  and  _574
REMARK  237  A    between atoms: _574  and  _575
REMARK  238  A    between atoms: _577  and  _579
REMARK  239  A    between atoms: _579  and  _580
REMARK  240  A    between atoms: _579  and  _582
REMARK  241  A    between atoms: _582  and  _583
REMARK                            x       y       z     vdW  Elec       q    Type
REMARK                         _______ _______ _______ _____ _____    ______ ____
ROOT
ATOM      1  CA  GLY A   2       3.651  40.273   3.121  0.00  0.00    +0.176 C 
ENDROOT
BRANCH   1   4
ATOM      2  C   GLN A   1       1.163  40.387   3.443  0.00  0.00    +0.238 C 
ATOM      3  O   GLN A   1       1.292  40.266   4.653  0.00  0.00    -0.274 OA
ATOM      4  N   GLY A   2       2.245  40.351   2.603  0.00  0.00    -0.296 N 
ATOM      5  H   GLY A   2       2.087  40.379   1.575  0.00  0.00    +0.150 HD
BRANCH   2   6
ATOM      6  CA  GLN A   1      -0.231  40.559   2.826  0.00  0.00    +0.145 C 
BRANCH   6   7
ATOM      7  N   GLN A   1      -0.222  40.507   1.361  0.00  0.00    -0.238 NA
ATOM      8  H   GLN A   1      -0.075  39.587   0.899  0.00  0.00    +0.142 HD
ENDBRANCH   6   7
BRANCH   6   9
ATOM      9  CB  GLN A   1      -1.231  39.554   3.408  0.00  0.00    +0.036 C 
BRANCH   9  10
ATOM     10  CG  GLN A   1      -2.676  39.783   3.020  0.00  0.00    +0.087 C 
BRANCH  10  11
ATOM     11  CD  GLN A   1      -3.645  38.809   3.653  0.00  0.00    +0.219 C 
ATOM     12  OE1 GLN A   1      -4.202  39.089   4.728  0.00  0.00    -0.275 OA
ATOM     13  NE2 GLN A   1      -3.898  37.683   3.003  0.00  0.00    -0.329 N 
ATOM     14 HE21 GLN A   1      -4.581  37.001   3.390  0.00  0.00    +0.145 HD
ATOM     15 HE22 GLN A   1      -3.413  37.481   2.105  0.00  0.00    +0.145 HD
ENDBRANCH  10  11
ENDBRANCH   9  10
ENDBRANCH   6   9
ENDBRANCH   2   6
ENDBRANCH   1   4
BRANCH   1  16
ATOM     16  C   GLY A   2       4.191  38.872   3.403  0.00  0.00    +0.243 C 
ATOM     17  O   GLY A   2       5.368  38.722   3.842  0.00  0.00    -0.273 OA
ATOM     18  N   PHE A   3       3.341  37.841   3.155  0.00  0.00    -0.298 N 
ATOM     19  H   PHE A   3       2.418  38.042   2.720  0.00  0.00    +0.150 HD
BRANCH  18  20
ATOM     20  CA  PHE A   3       3.693  36.424   3.489  0.00  0.00    +0.141 C 
BRANCH  20  21
ATOM     21  C   PHE A   3       4.071  35.669   2.200  0.00  0.00    +0.227 C 
ATOM     22  O   PHE A   3       3.790  36.087   1.050  0.00  0.00    -0.286 OA
ENDBRANCH  20  21
BRANCH  20  23
ATOM     23  CB  PHE A   3       2.458  35.740   4.145  0.00  0.00    +0.054 C 
BRANCH  23  24
ATOM     24  CG  PHE A   3       1.982  36.341   5.471  0.00  0.00    -0.020 A 
ATOM     25  CD2 PHE A   3       2.826  36.320   6.585  0.00  0.00    -0.004 A 
ATOM     26  CE2 PHE A   3       2.373  36.819   7.821  0.00  0.00    -0.000 A 
ATOM     27  CZ  PHE A   3       1.078  37.354   7.950  0.00  0.00    -0.000 A 
ATOM     28  CE1 PHE A   3       0.223  37.375   6.824  0.00  0.00    -0.000 A 
ATOM     29  CD1 PHE A   3       0.681  36.842   5.591  0.00  0.00    -0.004 A 
ENDBRANCH  23  24
ENDBRANCH  20  23
ENDBRANCH  18  20
ENDBRANCH   1  16
TORSDOF 11
REMARK  Name = ../refined-set-2016/1gvw/1gvw_pocket.pdb
REMARK  241 active torsions:
REMARK  status: ('A' for Active; 'I' for Inactive)
REMARK    1  A    between atoms: _1  and  _3
REMARK    2  A    between atoms: _3  and  _4
REMARK    3  A    between atoms: _3  and  _6
REMARK    4  A    between atoms: _6  and  _7
REMARK    5  A    between atoms: _10  and  _12
REMARK    6  A    between atoms: _12  and  _13
REMARK    7  A    between atoms: _12  and  _15
REMARK    8  A    between atoms: _15  and  _16
REMARK    9  A    between atoms: _19  and  _21
REMARK   10  A    between atoms: _21  and  _22
REMARK   11  A    between atoms: _21  and  _24
REMARK   12  A    between atoms: _24  and  _25
REMARK   13  A    between atoms: _28  and  _30
REMARK   14  A    between atoms: _30  and  _31
REMARK   15  A    between atoms: _30  and  _33
REMARK   16  A    between atoms: _33  and  _34
REMARK   17  A    between atoms: _37  and  _39
REMARK   18  A    between atoms: _39  and  _40
REMARK   19  A    between atoms: _39  and  _42
REMARK   20  A    between atoms: _42  and  _43
REMARK   21  A    between atoms: _46  and  _48
REMARK   22  A    between atoms: _48  and  _49
REMARK   23  A    between atoms: _52  and  _54
REMARK   24  A    between atoms: _54  and  _55
REMARK   25  A    between atoms: _54  and  _57
REMARK   26  A    between atoms: _57  and  _58
REMARK   27  A    between atoms: _63  and  _64
REMARK   28  A    between atoms: _66  and  _68
REMARK   29  A    between atoms: _68  and  _69
REMARK   30  A    between atoms: _68  and  _71
REMARK   31  A    between atoms: _71  and  _72
REMARK   32  A    between atoms: _75  and  _77
REMARK   33  A    between atoms: _77  and  _78
REMARK   34  A    between atoms: _77  and  _80
REMARK   35  A    between atoms: _80  and  _81
REMARK   36  A    between atoms: _87  and  _89
REMARK   37  A    between atoms: _89  and  _90
REMARK   38  A    between atoms: _89  and  _92
REMARK   39  A    between atoms: _92  and  _93
REMARK   40  A    between atoms: _96  and  _98
REMARK   41  A    between atoms: _98  and  _99
REMARK   42  A    between atoms: _98  and  _101
REMARK   43  A    between atoms: _101  and  _102
REMARK   44  A    between atoms: _105  and  _107
REMARK   45  A    between atoms: _107  and  _108
REMARK   46  A    between atoms: _110  and  _112
REMARK   47  A    between atoms: _112  and  _113
REMARK   48  A    between atoms: _112  and  _115
REMARK   49  A    between atoms: _115  and  _116
REMARK   50  A    between atoms: _118  and  _120
REMARK   51  A    between atoms: _120  and  _121
REMARK   52  A    between atoms: _120  and  _123
REMARK   53  A    between atoms: _123  and  _124
REMARK   54  A    between atoms: _126  and  _128
REMARK   55  A    between atoms: _128  and  _129
REMARK   56  A    between atoms: _128  and  _131
REMARK   57  A    between atoms: _131  and  _132
REMARK   58  A    between atoms: _135  and  _137
REMARK   59  A    between atoms: _137  and  _138
REMARK   60  A    between atoms: _137  and  _140
REMARK   61  A    between atoms: _140  and  _141
REMARK   62  A    between atoms: _151  and  _153
REMARK   63  A    between atoms: _153  and  _154
REMARK   64  A    between atoms: _153  and  _156
REMARK   65  A    between atoms: _156  and  _157
REMARK   66  A    between atoms: _159  and  _161
REMARK   67  A    between atoms: _161  and  _162
REMARK   68  A    between atoms: _161  and  _164
REMARK   69  A    between atoms: _164  and  _165
REMARK   70  A    between atoms: _168  and  _170
REMARK   71  A    between atoms: _170  and  _171
REMARK   72  A    between atoms: _170  and  _173
REMARK   73  A    between atoms: _173  and  _174
REMARK   74  A    between atoms: _176  and  _178
REMARK   75  A    between atoms: _178  and  _179
REMARK   76  A    between atoms: _178  and  _181
REMARK   77  A    between atoms: _181  and  _182
REMARK   78  A    between atoms: _187  and  _188
REMARK   79  A    between atoms: _190  and  _192
REMARK   80  A    between atoms: _192  and  _193
REMARK   81  A    between atoms: _195  and  _197
REMARK   82  A    between atoms: _197  and  _198
REMARK   83  A    between atoms: _197  and  _200
REMARK   84  A    between atoms: _200  and  _201
REMARK   85  A    between atoms: _204  and  _206
REMARK   86  A    between atoms: _206  and  _207
REMARK   87  A    between atoms: _209  and  _211
REMARK   88  A    between atoms: _211  and  _212
REMARK   89  A    between atoms: _211  and  _214
REMARK   90  A    between atoms: _214  and  _215
REMARK   91  A    between atoms: _217  and  _219
REMARK   92  A    between atoms: _219  and  _220
REMARK   93  A    between atoms: _219  and  _222
REMARK   94  A    between atoms: _222  and  _223
REMARK   95  A    between atoms: _225  and  _227
REMARK   96  A    between atoms: _227  and  _228
REMARK   97  A    between atoms: _227  and  _230
REMARK   98  A    between atoms: _230  and  _231
REMARK   99  A    between atoms: _233  and  _235
REMARK  100  A    between atoms: _235  and  _236
REMARK  101  A    between atoms: _235  and  _238
REMARK  102  A    between atoms: _238  and  _239
REMARK  103  A    between atoms: _245  and  _247
REMARK  104  A    between atoms: _247  and  _248
REMARK  105  A    between atoms: _247  and  _250
REMARK  106  A    between atoms: _250  and  _251
REMARK  107  A    between atoms: _254  and  _256
REMARK  108  A    between atoms: _256  and  _257
REMARK  109  A    between atoms: _256  and  _259
REMARK  110  A    between atoms: _259  and  _260
REMARK  111  A    between atoms: _263  and  _265
REMARK  112  A    between atoms: _265  and  _266
REMARK  113  A    between atoms: _265  and  _268
REMARK  114  A    between atoms: _268  and  _269
REMARK  115  A    between atoms: _272  and  _274
REMARK  116  A    between atoms: _274  and  _275
REMARK  117  A    between atoms: _277  and  _279
REMARK  118  A    between atoms: _279  and  _280
REMARK  119  A    between atoms: _279  and  _282
REMARK  120  A    between atoms: _282  and  _283
REMARK  121  A    between atoms: _286  and  _288
REMARK  122  A    between atoms: _288  and  _289
REMARK  123  A    between atoms: _288  and  _291
REMARK  124  A    between atoms: _291  and  _292
REMARK  125  A    between atoms: _295  and  _297
REMARK  126  A    between atoms: _297  and  _298
REMARK  127  A    between atoms: _300  and  _302
REMARK  128  A    between atoms: _302  and  _303
REMARK  129  A    between atoms: _302  and  _305
REMARK  130  A    between atoms: _305  and  _306
REMARK  131  A    between atoms: _309  and  _311
REMARK  132  A    between atoms: _311  and  _312
REMARK  133  A    between atoms: _315  and  _317
REMARK  134  A    between atoms: _317  and  _318
REMARK  135  A    between atoms: _317  and  _320
REMARK  136  A    between atoms: _320  and  _321
REMARK  137  A    between atoms: _327  and  _329
REMARK  138  A    between atoms: _329  and  _330
REMARK  139  A    between atoms: _329  and  _332
REMARK  140  A    between atoms: _332  and  _333
REMARK  141  A    between atoms: _336  and  _338
REMARK  142  A    between atoms: _338  and  _339
REMARK  143  A    between atoms: _338  and  _341
REMARK  144  A    between atoms: _341  and  _342
REMARK  145  A    between atoms: _345  and  _347
REMARK  146  A    between atoms: _347  and  _348
REMARK  147  A    between atoms: _347  and  _350
REMARK  148  A    between atoms: _350  and  _351
REMARK  149  A    between atoms: _356  and  _358
REMARK  150  A    between atoms: _358  and  _359
REMARK  151  A    between atoms: _358  and  _361
REMARK  152  A    between atoms: _361  and  _362
REMARK  153  A    between atoms: _365  and  _367
REMARK  154  A    between atoms: _367  and  _368
REMARK  155  A    between atoms: _367  and  _370
REMARK  156  A    between atoms: _370  and  _371
REMARK  157  A    between atoms: _371  and  _372
REMARK  158  A    between atoms: _377  and  _379
REMARK  159  A    between atoms: _379  and  _380
REMARK  160  A    between atoms: _382  and  _384
REMARK  161  A    between atoms: _384  and  _385
REMARK  162  A    between atoms: _384  and  _387
REMARK  163  A    between atoms: _387  and  _388
REMARK  164  A    between atoms: _394  and  _396
REMARK  165  A    between atoms: _396  and  _397
REMARK  166  A    between atoms: _396  and  _399
REMARK  167  A    between atoms: _399  and  _400
REMARK  168  A    between atoms: _403  and  _405
REMARK  169  A    between atoms: _405  and  _406
REMARK  170  A    between atoms: _409  and  _411
REMARK  171  A    between atoms: _411  and  _412
REMARK  172  A    between atoms: _411  and  _414
REMARK  173  A    between atoms: _414  and  _415
REMARK  174  A    between atoms: _418  and  _420
REMARK  175  A    between atoms: _420  and  _421
REMARK  176  A    between atoms: _420  and  _423
REMARK  177  A    between atoms: _423  and  _424
REMARK  178  A    between atoms: _427  and  _429
REMARK  179  A    between atoms: _429  and  _430
REMARK  180  A    between atoms: _432  and  _434
REMARK  181  A    between atoms: _434  and  _435
REMARK  182  A    between atoms: _434  and  _437
REMARK  183  A    between atoms: _437  and  _438
REMARK  184  A    between atoms: _441  and  _443
REMARK  185  A    between atoms: _443  and  _444
REMARK  186  A    between atoms: _443  and  _446
REMARK  187  A    between atoms: _446  and  _447
REMARK  188  A    between atoms: _450  and  _452
REMARK  189  A    between atoms: _452  and  _453
REMARK  190  A    between atoms: _452  and  _455
REMARK  191  A    between atoms: _455  and  _456
REMARK  192  A    between atoms: _459  and  _461
REMARK  193  A    between atoms: _461  and  _462
REMARK  194  A    between atoms: _461  and  _464
REMARK  195  A    between atoms: _464  and  _465
REMARK  196  A    between atoms: _470  and  _471
REMARK  197  A    between atoms: _473  and  _475
REMARK  198  A    between atoms: _475  and  _476
REMARK  199  A    between atoms: _478  and  _480
REMARK  200  A    between atoms: _480  and  _481
REMARK  201  A    between atoms: _480  and  _483
REMARK  202  A    between atoms: _483  and  _484
REMARK  203  A    between atoms: _490  and  _492
REMARK  204  A    between atoms: _492  and  _493
REMARK  205  A    between atoms: _492  and  _495
REMARK  206  A    between atoms: _495  and  _496
REMARK  207  A    between atoms: _502  and  _504
REMARK  208  A    between atoms: _504  and  _505
REMARK  209  A    between atoms: _507  and  _509
REMARK  210  A    between atoms: _509  and  _510
REMARK  211  A    between atoms: _512  and  _514
REMARK  212  A    between atoms: _514  and  _515
REMARK  213  A    between atoms: _514  and  _517
REMARK  214  A    between atoms: _517  and  _518
REMARK  215  A    between atoms: _518  and  _519
REMARK  216  A    between atoms: _524  and  _526
REMARK  217  A    between atoms: _526  and  _527
REMARK  218  A    between atoms: _529  and  _531
REMARK  219  A    between atoms: _531  and  _532
REMARK  220  A    between atoms: _531  and  _534
REMARK  221  A    between atoms: _534  and  _535
REMARK  222  A    between atoms: _538  and  _540
REMARK  223  A    between atoms: _540  and  _541
REMARK  224  A    between atoms: _543  and  _545
REMARK  225  A    between atoms: _545  and  _546
REMARK  226  A    between atoms: _545  and  _548
REMARK  227  A    between atoms: _548  and  _549
REMARK  228  A    between atoms: _552  and  _554
REMARK  229  A    between atoms: _554  and  _555
REMARK  230  A    between atoms: _554  and  _557
REMARK  231  A    between atoms: _557  and  _558
REMARK  232  A    between atoms: _563  and  _565
REMARK  233  A    between atoms: _565  and  _566
REMARK  234  A    between atoms: _565  and  _568
REMARK  235  A    between atoms: _568  and  _569
REMARK  236  A    between atoms: _572  and  _574
REMARK  237  A    between atoms: _574  and  _575
REMARK  238  A    between atoms: _577  and  _579
REMARK  239  A    between atoms: _579  and  _580
REMARK  240  A    between atoms: _579  and  _582
REMARK  241  A    between atoms: _582  and  _583
REMARK                            x       y       z     vdW  Elec       q    Type
REMARK                         _______ _______ _______ _____ _____    ______ ____
ROOT
ATOM      1  C   THR A   4       8.246  28.112  11.191  0.00  0.00    +0.243 C 
ATOM      2  O   THR A   4       8.658  27.245  12.014  0.00  0.00    -0.273 OA
ATOM      3  N   GLY A   5       7.742  29.298  11.571  0.00  0.00    -0.295 N 
ATOM      4  H   GLY A   5       7.424  29.957  10.832  0.00  0.00    +0.150 HD
ENDROOT
BRANCH   1   5
ATOM      5  CA  THR A   4       8.289  27.778   9.681  0.00  0.00    +0.176 C 
BRANCH   5   8
ATOM      6  C   ASP A   3       6.051  28.554   8.974  0.00  0.00    +0.241 C 
ATOM      7  O   ASP A   3       5.472  27.813   9.800  0.00  0.00    -0.273 OA
ATOM      8  N   THR A   4       7.418  28.643   8.877  0.00  0.00    -0.295 N 
ATOM      9  H   THR A   4       7.842  29.333   8.225  0.00  0.00    +0.150 HD
BRANCH   6  10
ATOM     10  CA  ASP A   3       5.212  29.477   8.054  0.00  0.00    +0.160 C 
BRANCH  10  12
ATOM     11  C   ALA A   2       4.927  29.356   5.558  0.00  0.00    +0.241 C 
ATOM     12  N   ASP A   3       4.802  28.797   6.786  0.00  0.00    -0.297 N 
ATOM     13  H   ASP A   3       4.398  27.841   6.851  0.00  0.00    +0.150 HD
ATOM     14  O   ALA A   2       5.602  30.381   5.344  0.00  0.00    -0.273 OA
BRANCH  11  15
ATOM     15  CA  ALA A   2       4.160  28.684   4.387  0.00  0.00    +0.149 C 
ATOM     16  CB  ALA A   2       5.059  28.352   3.176  0.00  0.00    +0.031 C 
BRANCH  15  19
ATOM     17  C   ILE A   1       1.823  29.600   4.560  0.00  0.00    +0.238 C 
ATOM     18  O   ILE A   1       1.504  28.729   5.420  0.00  0.00    -0.274 OA
ATOM     19  N   ALA A   2       3.058  29.613   3.960  0.00  0.00    -0.297 N 
ATOM     20  H   ALA A   2       3.236  30.286   3.187  0.00  0.00    +0.150 HD
BRANCH  17  21
ATOM     21  CA  ILE A   1       0.852  30.726   4.150  0.00  0.00    +0.145 C 
BRANCH  21  22
ATOM     22  N   ILE A   1      -0.559  30.213   4.121  0.00  0.00    -0.238 NA
ATOM     23  H   ILE A   1      -0.982  29.833   4.992  0.00  0.00    +0.142 HD
ENDBRANCH  21  22
BRANCH  21  24
ATOM     24  CB  ILE A   1       0.995  31.978   5.044  0.00  0.00    +0.025 C 
ATOM     25  CG2 ILE A   1       0.065  33.087   4.563  0.00  0.00    +0.002 C 
BRANCH  24  26
ATOM     26  CG1 ILE A   1       0.756  31.694   6.563  0.00  0.00    +0.002 C 
ATOM     27  CD1 ILE A   1       1.226  32.811   7.494  0.00  0.00    +0.000 C 
ENDBRANCH  24  26
ENDBRANCH  21  24
ENDBRANCH  17  21
ENDBRANCH  15  19
ENDBRANCH  11  15
ENDBRANCH  10  12
BRANCH  10  28
ATOM     28  CB  ASP A   3       3.944  29.985   8.743  0.00  0.00    +0.143 C 
BRANCH  28  29
ATOM     29  CG  ASP A   3       4.124  30.826   9.992  0.00  0.00    +0.367 C 
ATOM     30  OD2 ASP A   3       3.138  31.311  10.570  0.00  0.00    -0.246 OA
ATOM     31  OD1 ASP A   3       5.318  31.022  10.424  0.00  0.00    -0.246 OA
ENDBRANCH  28  29
ENDBRANCH  10  28
ENDBRANCH   6  10
ENDBRANCH   5   8
BRANCH   5  32
ATOM     32  CB  THR A   4       9.785  27.828   9.189  0.00  0.00    +0.137 C 
ATOM     33  CG2 THR A   4      10.004  27.290   7.789  0.00  0.00    +0.034 C 
BRANCH  32  34
ATOM     34  OG1 THR A   4      10.242  29.201   9.271  0.00  0.00    -0.382 OA
ATOM     35  HG1 THR A   4      10.181  29.513  10.209  0.00  0.00    +0.210 HD
ENDBRANCH  32  34
ENDBRANCH   5  32
ENDBRANCH   1   5
BRANCH   3  36
ATOM     36  CA  GLY A   5       7.616  29.716  12.979  0.00  0.00    +0.176 C 
BRANCH  36  37
ATOM     37  C   GLY A   5       6.306  29.277  13.702  0.00  0.00    +0.243 C 
ATOM     38  O   GLY A   5       6.116  29.610  14.881  0.00  0.00    -0.273 OA
ATOM     39  N   THR A   6       5.414  28.531  12.986  0.00  0.00    -0.295 N 
ATOM     40  H   THR A   6       5.613  28.337  11.984  0.00  0.00    +0.150 HD
BRANCH  39  41
ATOM     41  CA  THR A   6       4.166  27.986  13.590  0.00  0.00    +0.176 C 
BRANCH  41  42
ATOM     42  C   THR A   6       4.309  26.449  13.660  0.00  0.00    +0.243 C 
ATOM     43  N   THR A   7       3.950  25.840  14.809  0.00  0.00    -0.295 N 
ATOM     44  H   THR A   7       3.498  26.400  15.560  0.00  0.00    +0.150 HD
ATOM     45  O   THR A   6       4.742  25.821  12.664  0.00  0.00    -0.273 OA
BRANCH  43  46
ATOM     46  CA  THR A   7       4.180  24.416  15.023  0.00  0.00    +0.176 C 
BRANCH  46  47
ATOM     47  C   THR A   7       3.250  23.480  14.169  0.00  0.00    +0.243 C 
ATOM     48  N   LEU A   8       1.904  23.814  14.185  0.00  0.00    -0.298 N 
ATOM     49  H   LEU A   8       1.619  24.733  14.581  0.00  0.00    +0.150 HD
ATOM     50  O   THR A   7       3.739  22.513  13.609  0.00  0.00    -0.273 OA
BRANCH  48  51
ATOM     51  CA  LEU A   8       0.858  22.907  13.658  0.00  0.00    +0.137 C 
BRANCH  51  52
ATOM     52  C   LEU A   8       0.369  23.310  12.216  0.00  0.00    +0.227 C 
ATOM     53  O   LEU A   8       0.767  24.334  11.646  0.00  0.00    -0.286 OA
ENDBRANCH  51  52
BRANCH  51  54
ATOM     54  CB  LEU A   8      -0.345  22.827  14.670  0.00  0.00    +0.028 C 
BRANCH  54  55
ATOM     55  CG  LEU A   8       0.035  22.415  16.105  0.00  0.00    +0.002 C 
ATOM     56  CD2 LEU A   8      -1.242  22.265  16.979  0.00  0.00    +0.000 C 
ATOM     57  CD1 LEU A   8       0.886  21.139  16.175  0.00  0.00    +0.000 C 
ENDBRANCH  54  55
ENDBRANCH  51  54
ENDBRANCH  48  51
ENDBRANCH  46  47
BRANCH  46  58
ATOM     58  CB  THR A   7       3.956  24.071  16.552  0.00  0.00    +0.137 C 
ATOM     59  CG2 THR A   7       4.344  22.647  16.906  0.00  0.00    +0.034 C 
BRANCH  58  60
ATOM     60  OG1 THR A   7       4.728  25.013  17.364  0.00  0.00    -0.382 OA
ATOM     61  HG1 THR A   7       5.688  24.932  17.138  0.00  0.00    +0.210 HD
ENDBRANCH  58  60
ENDBRANCH  46  58
ENDBRANCH  43  46
ENDBRANCH  41  42
BRANCH  41  62
ATOM     62  CB  THR A   6       2.903  28.434  12.798  0.00  0.00    +0.137 C 
ATOM     63  CG2 THR A   6       1.620  27.701  13.196  0.00  0.00    +0.034 C 
BRANCH  62  64
ATOM     64  OG1 THR A   6       2.709  29.828  13.036  0.00  0.00    -0.382 OA
ATOM     65  HG1 THR A   6       3.505  30.328  12.726  0.00  0.00    +0.210 HD
ENDBRANCH  62  64
ENDBRANCH  41  62
ENDBRANCH  39  41
ENDBRANCH  36  37
ENDBRANCH   3  36
TORSDOF 28
REMARK  Name = ../refined-set-2016/1gvw/1gvw_pocket.pdb
REMARK  241 active torsions:
REMARK  status: ('A' for Active; 'I' for Inactive)
REMARK    1  A    between atoms: _1  and  _3
REMARK    2  A    between atoms: _3  and  _4
REMARK    3  A    between atoms: _3  and  _6
REMARK    4  A    between atoms: _6  and  _7
REMARK    5  A    between atoms: _10  and  _12
REMARK    6  A    between atoms: _12  and  _13
REMARK    7  A    between atoms: _12  and  _15
REMARK    8  A    between atoms: _15  and  _16
REMARK    9  A    between atoms: _19  and  _21
REMARK   10  A    between atoms: _21  and  _22
REMARK   11  A    between atoms: _21  and  _24
REMARK   12  A    between atoms: _24  and  _25
REMARK   13  A    between atoms: _28  and  _30
REMARK   14  A    between atoms: _30  and  _31
REMARK   15  A    between atoms: _30  and  _33
REMARK   16  A    between atoms: _33  and  _34
REMARK   17  A    between atoms: _37  and  _39
REMARK   18  A    between atoms: _39  and  _40
REMARK   19  A    between atoms: _39  and  _42
REMARK   20  A    between atoms: _42  and  _43
REMARK   21  A    between atoms: _46  and  _48
REMARK   22  A    between atoms: _48  and  _49
REMARK   23  A    between atoms: _52  and  _54
REMARK   24  A    between atoms: _54  and  _55
REMARK   25  A    between atoms: _54  and  _57
REMARK   26  A    between atoms: _57  and  _58
REMARK   27  A    between atoms: _63  and  _64
REMARK   28  A    between atoms: _66  and  _68
REMARK   29  A    between atoms: _68  and  _69
REMARK   30  A    between atoms: _68  and  _71
REMARK   31  A    between atoms: _71  and  _72
REMARK   32  A    between atoms: _75  and  _77
REMARK   33  A    between atoms: _77  and  _78
REMARK   34  A    between atoms: _77  and  _80
REMARK   35  A    between atoms: _80  and  _81
REMARK   36  A    between atoms: _87  and  _89
REMARK   37  A    between atoms: _89  and  _90
REMARK   38  A    between atoms: _89  and  _92
REMARK   39  A    between atoms: _92  and  _93
REMARK   40  A    between atoms: _96  and  _98
REMARK   41  A    between atoms: _98  and  _99
REMARK   42  A    between atoms: _98  and  _101
REMARK   43  A    between atoms: _101  and  _102
REMARK   44  A    between atoms: _105  and  _107
REMARK   45  A    between atoms: _107  and  _108
REMARK   46  A    between atoms: _110  and  _112
REMARK   47  A    between atoms: _112  and  _113
REMARK   48  A    between atoms: _112  and  _115
REMARK   49  A    between atoms: _115  and  _116
REMARK   50  A    between atoms: _118  and  _120
REMARK   51  A    between atoms: _120  and  _121
REMARK   52  A    between atoms: _120  and  _123
REMARK   53  A    between atoms: _123  and  _124
REMARK   54  A    between atoms: _126  and  _128
REMARK   55  A    between atoms: _128  and  _129
REMARK   56  A    between atoms: _128  and  _131
REMARK   57  A    between atoms: _131  and  _132
REMARK   58  A    between atoms: _135  and  _137
REMARK   59  A    between atoms: _137  and  _138
REMARK   60  A    between atoms: _137  and  _140
REMARK   61  A    between atoms: _140  and  _141
REMARK   62  A    between atoms: _151  and  _153
REMARK   63  A    between atoms: _153  and  _154
REMARK   64  A    between atoms: _153  and  _156
REMARK   65  A    between atoms: _156  and  _157
REMARK   66  A    between atoms: _159  and  _161
REMARK   67  A    between atoms: _161  and  _162
REMARK   68  A    between atoms: _161  and  _164
REMARK   69  A    between atoms: _164  and  _165
REMARK   70  A    between atoms: _168  and  _170
REMARK   71  A    between atoms: _170  and  _171
REMARK   72  A    between atoms: _170  and  _173
REMARK   73  A    between atoms: _173  and  _174
REMARK   74  A    between atoms: _176  and  _178
REMARK   75  A    between atoms: _178  and  _179
REMARK   76  A    between atoms: _178  and  _181
REMARK   77  A    between atoms: _181  and  _182
REMARK   78  A    between atoms: _187  and  _188
REMARK   79  A    between atoms: _190  and  _192
REMARK   80  A    between atoms: _192  and  _193
REMARK   81  A    between atoms: _195  and  _197
REMARK   82  A    between atoms: _197  and  _198
REMARK   83  A    between atoms: _197  and  _200
REMARK   84  A    between atoms: _200  and  _201
REMARK   85  A    between atoms: _204  and  _206
REMARK   86  A    between atoms: _206  and  _207
REMARK   87  A    between atoms: _209  and  _211
REMARK   88  A    between atoms: _211  and  _212
REMARK   89  A    between atoms: _211  and  _214
REMARK   90  A    between atoms: _214  and  _215
REMARK   91  A    between atoms: _217  and  _219
REMARK   92  A    between atoms: _219  and  _220
REMARK   93  A    between atoms: _219  and  _222
REMARK   94  A    between atoms: _222  and  _223
REMARK   95  A    between atoms: _225  and  _227
REMARK   96  A    between atoms: _227  and  _228
REMARK   97  A    between atoms: _227  and  _230
REMARK   98  A    between atoms: _230  and  _231
REMARK   99  A    between atoms: _233  and  _235
REMARK  100  A    between atoms: _235  and  _236
REMARK  101  A    between atoms: _235  and  _238
REMARK  102  A    between atoms: _238  and  _239
REMARK  103  A    between atoms: _245  and  _247
REMARK  104  A    between atoms: _247  and  _248
REMARK  105  A    between atoms: _247  and  _250
REMARK  106  A    between atoms: _250  and  _251
REMARK  107  A    between atoms: _254  and  _256
REMARK  108  A    between atoms: _256  and  _257
REMARK  109  A    between atoms: _256  and  _259
REMARK  110  A    between atoms: _259  and  _260
REMARK  111  A    between atoms: _263  and  _265
REMARK  112  A    between atoms: _265  and  _266
REMARK  113  A    between atoms: _265  and  _268
REMARK  114  A    between atoms: _268  and  _269
REMARK  115  A    between atoms: _272  and  _274
REMARK  116  A    between atoms: _274  and  _275
REMARK  117  A    between atoms: _277  and  _279
REMARK  118  A    between atoms: _279  and  _280
REMARK  119  A    between atoms: _279  and  _282
REMARK  120  A    between atoms: _282  and  _283
REMARK  121  A    between atoms: _286  and  _288
REMARK  122  A    between atoms: _288  and  _289
REMARK  123  A    between atoms: _288  and  _291
REMARK  124  A    between atoms: _291  and  _292
REMARK  125  A    between atoms: _295  and  _297
REMARK  126  A    between atoms: _297  and  _298
REMARK  127  A    between atoms: _300  and  _302
REMARK  128  A    between atoms: _302  and  _303
REMARK  129  A    between atoms: _302  and  _305
REMARK  130  A    between atoms: _305  and  _306
REMARK  131  A    between atoms: _309  and  _311
REMARK  132  A    between atoms: _311  and  _312
REMARK  133  A    between atoms: _315  and  _317
REMARK  134  A    between atoms: _317  and  _318
REMARK  135  A    between atoms: _317  and  _320
REMARK  136  A    between atoms: _320  and  _321
REMARK  137  A    between atoms: _327  and  _329
REMARK  138  A    between atoms: _329  and  _330
REMARK  139  A    between atoms: _329  and  _332
REMARK  140  A    between atoms: _332  and  _333
REMARK  141  A    between atoms: _336  and  _338
REMARK  142  A    between atoms: _338  and  _339
REMARK  143  A    between atoms: _338  and  _341
REMARK  144  A    between atoms: _341  and  _342
REMARK  145  A    between atoms: _345  and  _347
REMARK  146  A    between atoms: _347  and  _348
REMARK  147  A    between atoms: _347  and  _350
REMARK  148  A    between atoms: _350  and  _351
REMARK  149  A    between atoms: _356  and  _358
REMARK  150  A    between atoms: _358  and  _359
REMARK  151  A    between atoms: _358  and  _361
REMARK  152  A    between atoms: _361  and  _362
REMARK  153  A    between atoms: _365  and  _367
REMARK  154  A    between atoms: _367  and  _368
REMARK  155  A    between atoms: _367  and  _370
REMARK  156  A    between atoms: _370  and  _371
REMARK  157  A    between atoms: _371  and  _372
REMARK  158  A    between atoms: _377  and  _379
REMARK  159  A    between atoms: _379  and  _380
REMARK  160  A    between atoms: _382  and  _384
REMARK  161  A    between atoms: _384  and  _385
REMARK  162  A    between atoms: _384  and  _387
REMARK  163  A    between atoms: _387  and  _388
REMARK  164  A    between atoms: _394  and  _396
REMARK  165  A    between atoms: _396  and  _397
REMARK  166  A    between atoms: _396  and  _399
REMARK  167  A    between atoms: _399  and  _400
REMARK  168  A    between atoms: _403  and  _405
REMARK  169  A    between atoms: _405  and  _406
REMARK  170  A    between atoms: _409  and  _411
REMARK  171  A    between atoms: _411  and  _412
REMARK  172  A    between atoms: _411  and  _414
REMARK  173  A    between atoms: _414  and  _415
REMARK  174  A    between atoms: _418  and  _420
REMARK  175  A    between atoms: _420  and  _421
REMARK  176  A    between atoms: _420  and  _423
REMARK  177  A    between atoms: _423  and  _424
REMARK  178  A    between atoms: _427  and  _429
REMARK  179  A    between atoms: _429  and  _430
REMARK  180  A    between atoms: _432  and  _434
REMARK  181  A    between atoms: _434  and  _435
REMARK  182  A    between atoms: _434  and  _437
REMARK  183  A    between atoms: _437  and  _438
REMARK  184  A    between atoms: _441  and  _443
REMARK  185  A    between atoms: _443  and  _444
REMARK  186  A    between atoms: _443  and  _446
REMARK  187  A    between atoms: _446  and  _447
REMARK  188  A    between atoms: _450  and  _452
REMARK  189  A    between atoms: _452  and  _453
REMARK  190  A    between atoms: _452  and  _455
REMARK  191  A    between atoms: _455  and  _456
REMARK  192  A    between atoms: _459  and  _461
REMARK  193  A    between atoms: _461  and  _462
REMARK  194  A    between atoms: _461  and  _464
REMARK  195  A    between atoms: _464  and  _465
REMARK  196  A    between atoms: _470  and  _471
REMARK  197  A    between atoms: _473  and  _475
REMARK  198  A    between atoms: _475  and  _476
REMARK  199  A    between atoms: _478  and  _480
REMARK  200  A    between atoms: _480  and  _481
REMARK  201  A    between atoms: _480  and  _483
REMARK  202  A    between atoms: _483  and  _484
REMARK  203  A    between atoms: _490  and  _492
REMARK  204  A    between atoms: _492  and  _493
REMARK  205  A    between atoms: _492  and  _495
REMARK  206  A    between atoms: _495  and  _496
REMARK  207  A    between atoms: _502  and  _504
REMARK  208  A    between atoms: _504  and  _505
REMARK  209  A    between atoms: _507  and  _509
REMARK  210  A    between atoms: _509  and  _510
REMARK  211  A    between atoms: _512  and  _514
REMARK  212  A    between atoms: _514  and  _515
REMARK  213  A    between atoms: _514  and  _517
REMARK  214  A    between atoms: _517  and  _518
REMARK  215  A    between atoms: _518  and  _519
REMARK  216  A    between atoms: _524  and  _526
REMARK  217  A    between atoms: _526  and  _527
REMARK  218  A    between atoms: _529  and  _531
REMARK  219  A    between atoms: _531  and  _532
REMARK  220  A    between atoms: _531  and  _534
REMARK  221  A    between atoms: _534  and  _535
REMARK  222  A    between atoms: _538  and  _540
REMARK  223  A    between atoms: _540  and  _541
REMARK  224  A    between atoms: _543  and  _545
REMARK  225  A    between atoms: _545  and  _546
REMARK  226  A    between atoms: _545  and  _548
REMARK  227  A    between atoms: _548  and  _549
REMARK  228  A    between atoms: _552  and  _554
REMARK  229  A    between atoms: _554  and  _555
REMARK  230  A    between atoms: _554  and  _557
REMARK  231  A    between atoms: _557  and  _558
REMARK  232  A    between atoms: _563  and  _565
REMARK  233  A    between atoms: _565  and  _566
REMARK  234  A    between atoms: _565  and  _568
REMARK  235  A    between atoms: _568  and  _569
REMARK  236  A    between atoms: _572  and  _574
REMARK  237  A    between atoms: _574  and  _575
REMARK  238  A    between atoms: _577  and  _579
REMARK  239  A    between atoms: _579  and  _580
REMARK  240  A    between atoms: _579  and  _582
REMARK  241  A    between atoms: _582  and  _583
REMARK                            x       y       z     vdW  Elec       q    Type
REMARK                         _______ _______ _______ _____ _____    ______ ____
ROOT
ATOM      1  CG  TYR A   1      -3.584  26.282  12.681  0.00  0.00    -0.020 A 
ATOM      2  CD2 TYR A   1      -4.424  26.027  13.799  0.00  0.00    -0.001 A 
ATOM      3  CE2 TYR A   1      -3.893  25.936  15.083  0.00  0.00    +0.036 A 
ATOM      4  CZ  TYR A   1      -2.516  26.087  15.312  0.00  0.00    +0.134 A 
ATOM      5  CE1 TYR A   1      -1.665  26.340  14.215  0.00  0.00    +0.036 A 
ATOM      6  CD1 TYR A   1      -2.212  26.422  12.925  0.00  0.00    -0.001 A 
ENDROOT
BRANCH   4   7
ATOM      7  OH  TYR A   1      -1.957  26.020  16.589  0.00  0.00    -0.506 OA
ATOM      8  HH  TYR A   1      -2.670  25.838  17.251  0.00  0.00    +0.292 HD
ENDBRANCH   4   7
BRANCH   1   9
ATOM      9  CB  TYR A   1      -4.152  26.367  11.257  0.00  0.00    +0.051 C 
BRANCH   9  10
ATOM     10  CA  TYR A   1      -4.296  25.008  10.547  0.00  0.00    +0.137 C 
BRANCH  10  11
ATOM     11  N   TYR A   1      -2.965  24.367  10.303  0.00  0.00    -0.239 NA
ATOM     12  H   TYR A   1      -2.234  24.935   9.829  0.00  0.00    +0.142 HD
ENDBRANCH  10  11
BRANCH  10  13
ATOM     13  C   TYR A   1      -5.048  25.166   9.212  0.00  0.00    +0.224 C 
ATOM     14  O   TYR A   1      -4.584  25.834   8.289  0.00  0.00    -0.287 OA
ENDBRANCH  10  13
ENDBRANCH   9  10
ENDBRANCH   1   9
TORSDOF 5
REMARK  Name = ../refined-set-2016/1gvw/1gvw_pocket.pdb
REMARK  241 active torsions:
REMARK  status: ('A' for Active; 'I' for Inactive)
REMARK    1  A    between atoms: _1  and  _3
REMARK    2  A    between atoms: _3  and  _4
REMARK    3  A    between atoms: _3  and  _6
REMARK    4  A    between atoms: _6  and  _7
REMARK    5  A    between atoms: _10  and  _12
REMARK    6  A    between atoms: _12  and  _13
REMARK    7  A    between atoms: _12  and  _15
REMARK    8  A    between atoms: _15  and  _16
REMARK    9  A    between atoms: _19  and  _21
REMARK   10  A    between atoms: _21  and  _22
REMARK   11  A    between atoms: _21  and  _24
REMARK   12  A    between atoms: _24  and  _25
REMARK   13  A    between atoms: _28  and  _30
REMARK   14  A    between atoms: _30  and  _31
REMARK   15  A    between atoms: _30  and  _33
REMARK   16  A    between atoms: _33  and  _34
REMARK   17  A    between atoms: _37  and  _39
REMARK   18  A    between atoms: _39  and  _40
REMARK   19  A    between atoms: _39  and  _42
REMARK   20  A    between atoms: _42  and  _43
REMARK   21  A    between atoms: _46  and  _48
REMARK   22  A    between atoms: _48  and  _49
REMARK   23  A    between atoms: _52  and  _54
REMARK   24  A    between atoms: _54  and  _55
REMARK   25  A    between atoms: _54  and  _57
REMARK   26  A    between atoms: _57  and  _58
REMARK   27  A    between atoms: _63  and  _64
REMARK   28  A    between atoms: _66  and  _68
REMARK   29  A    between atoms: _68  and  _69
REMARK   30  A    between atoms: _68  and  _71
REMARK   31  A    between atoms: _71  and  _72
REMARK   32  A    between atoms: _75  and  _77
REMARK   33  A    between atoms: _77  and  _78
REMARK   34  A    between atoms: _77  and  _80
REMARK   35  A    between atoms: _80  and  _81
REMARK   36  A    between atoms: _87  and  _89
REMARK   37  A    between atoms: _89  and  _90
REMARK   38  A    between atoms: _89  and  _92
REMARK   39  A    between atoms: _92  and  _93
REMARK   40  A    between atoms: _96  and  _98
REMARK   41  A    between atoms: _98  and  _99
REMARK   42  A    between atoms: _98  and  _101
REMARK   43  A    between atoms: _101  and  _102
REMARK   44  A    between atoms: _105  and  _107
REMARK   45  A    between atoms: _107  and  _108
REMARK   46  A    between atoms: _110  and  _112
REMARK   47  A    between atoms: _112  and  _113
REMARK   48  A    between atoms: _112  and  _115
REMARK   49  A    between atoms: _115  and  _116
REMARK   50  A    between atoms: _118  and  _120
REMARK   51  A    between atoms: _120  and  _121
REMARK   52  A    between atoms: _120  and  _123
REMARK   53  A    between atoms: _123  and  _124
REMARK   54  A    between atoms: _126  and  _128
REMARK   55  A    between atoms: _128  and  _129
REMARK   56  A    between atoms: _128  and  _131
REMARK   57  A    between atoms: _131  and  _132
REMARK   58  A    between atoms: _135  and  _137
REMARK   59  A    between atoms: _137  and  _138
REMARK   60  A    between atoms: _137  and  _140
REMARK   61  A    between atoms: _140  and  _141
REMARK   62  A    between atoms: _151  and  _153
REMARK   63  A    between atoms: _153  and  _154
REMARK   64  A    between atoms: _153  and  _156
REMARK   65  A    between atoms: _156  and  _157
REMARK   66  A    between atoms: _159  and  _161
REMARK   67  A    between atoms: _161  and  _162
REMARK   68  A    between atoms: _161  and  _164
REMARK   69  A    between atoms: _164  and  _165
REMARK   70  A    between atoms: _168  and  _170
REMARK   71  A    between atoms: _170  and  _171
REMARK   72  A    between atoms: _170  and  _173
REMARK   73  A    between atoms: _173  and  _174
REMARK   74  A    between atoms: _176  and  _178
REMARK   75  A    between atoms: _178  and  _179
REMARK   76  A    between atoms: _178  and  _181
REMARK   77  A    between atoms: _181  and  _182
REMARK   78  A    between atoms: _187  and  _188
REMARK   79  A    between atoms: _190  and  _192
REMARK   80  A    between atoms: _192  and  _193
REMARK   81  A    between atoms: _195  and  _197
REMARK   82  A    between atoms: _197  and  _198
REMARK   83  A    between atoms: _197  and  _200
REMARK   84  A    between atoms: _200  and  _201
REMARK   85  A    between atoms: _204  and  _206
REMARK   86  A    between atoms: _206  and  _207
REMARK   87  A    between atoms: _209  and  _211
REMARK   88  A    between atoms: _211  and  _212
REMARK   89  A    between atoms: _211  and  _214
REMARK   90  A    between atoms: _214  and  _215
REMARK   91  A    between atoms: _217  and  _219
REMARK   92  A    between atoms: _219  and  _220
REMARK   93  A    between atoms: _219  and  _222
REMARK   94  A    between atoms: _222  and  _223
REMARK   95  A    between atoms: _225  and  _227
REMARK   96  A    between atoms: _227  and  _228
REMARK   97  A    between atoms: _227  and  _230
REMARK   98  A    between atoms: _230  and  _231
REMARK   99  A    between atoms: _233  and  _235
REMARK  100  A    between atoms: _235  and  _236
REMARK  101  A    between atoms: _235  and  _238
REMARK  102  A    between atoms: _238  and  _239
REMARK  103  A    between atoms: _245  and  _247
REMARK  104  A    between atoms: _247  and  _248
REMARK  105  A    between atoms: _247  and  _250
REMARK  106  A    between atoms: _250  and  _251
REMARK  107  A    between atoms: _254  and  _256
REMARK  108  A    between atoms: _256  and  _257
REMARK  109  A    between atoms: _256  and  _259
REMARK  110  A    between atoms: _259  and  _260
REMARK  111  A    between atoms: _263  and  _265
REMARK  112  A    between atoms: _265  and  _266
REMARK  113  A    between atoms: _265  and  _268
REMARK  114  A    between atoms: _268  and  _269
REMARK  115  A    between atoms: _272  and  _274
REMARK  116  A    between atoms: _274  and  _275
REMARK  117  A    between atoms: _277  and  _279
REMARK  118  A    between atoms: _279  and  _280
REMARK  119  A    between atoms: _279  and  _282
REMARK  120  A    between atoms: _282  and  _283
REMARK  121  A    between atoms: _286  and  _288
REMARK  122  A    between atoms: _288  and  _289
REMARK  123  A    between atoms: _288  and  _291
REMARK  124  A    between atoms: _291  and  _292
REMARK  125  A    between atoms: _295  and  _297
REMARK  126  A    between atoms: _297  and  _298
REMARK  127  A    between atoms: _300  and  _302
REMARK  128  A    between atoms: _302  and  _303
REMARK  129  A    between atoms: _302  and  _305
REMARK  130  A    between atoms: _305  and  _306
REMARK  131  A    between atoms: _309  and  _311
REMARK  132  A    between atoms: _311  and  _312
REMARK  133  A    between atoms: _315  and  _317
REMARK  134  A    between atoms: _317  and  _318
REMARK  135  A    between atoms: _317  and  _320
REMARK  136  A    between atoms: _320  and  _321
REMARK  137  A    between atoms: _327  and  _329
REMARK  138  A    between atoms: _329  and  _330
REMARK  139  A    between atoms: _329  and  _332
REMARK  140  A    between atoms: _332  and  _333
REMARK  141  A    between atoms: _336  and  _338
REMARK  142  A    between atoms: _338  and  _339
REMARK  143  A    between atoms: _338  and  _341
REMARK  144  A    between atoms: _341  and  _342
REMARK  145  A    between atoms: _345  and  _347
REMARK  146  A    between atoms: _347  and  _348
REMARK  147  A    between atoms: _347  and  _350
REMARK  148  A    between atoms: _350  and  _351
REMARK  149  A    between atoms: _356  and  _358
REMARK  150  A    between atoms: _358  and  _359
REMARK  151  A    between atoms: _358  and  _361
REMARK  152  A    between atoms: _361  and  _362
REMARK  153  A    between atoms: _365  and  _367
REMARK  154  A    between atoms: _367  and  _368
REMARK  155  A    between atoms: _367  and  _370
REMARK  156  A    between atoms: _370  and  _371
REMARK  157  A    between atoms: _371  and  _372
REMARK  158  A    between atoms: _377  and  _379
REMARK  159  A    between atoms: _379  and  _380
REMARK  160  A    between atoms: _382  and  _384
REMARK  161  A    between atoms: _384  and  _385
REMARK  162  A    between atoms: _384  and  _387
REMARK  163  A    between atoms: _387  and  _388
REMARK  164  A    between atoms: _394  and  _396
REMARK  165  A    between atoms: _396  and  _397
REMARK  166  A    between atoms: _396  and  _399
REMARK  167  A    between atoms: _399  and  _400
REMARK  168  A    between atoms: _403  and  _405
REMARK  169  A    between atoms: _405  and  _406
REMARK  170  A    between atoms: _409  and  _411
REMARK  171  A    between atoms: _411  and  _412
REMARK  172  A    between atoms: _411  and  _414
REMARK  173  A    between atoms: _414  and  _415
REMARK  174  A    between atoms: _418  and  _420
REMARK  175  A    between atoms: _420  and  _421
REMARK  176  A    between atoms: _420  and  _423
REMARK  177  A    between atoms: _423  and  _424
REMARK  178  A    between atoms: _427  and  _429
REMARK  179  A    between atoms: _429  and  _430
REMARK  180  A    between atoms: _432  and  _434
REMARK  181  A    between atoms: _434  and  _435
REMARK  182  A    between atoms: _434  and  _437
REMARK  183  A    between atoms: _437  and  _438
REMARK  184  A    between atoms: _441  and  _443
REMARK  185  A    between atoms: _443  and  _444
REMARK  186  A    between atoms: _443  and  _446
REMARK  187  A    between atoms: _446  and  _447
REMARK  188  A    between atoms: _450  and  _452
REMARK  189  A    between atoms: _452  and  _453
REMARK  190  A    between atoms: _452  and  _455
REMARK  191  A    between atoms: _455  and  _456
REMARK  192  A    between atoms: _459  and  _461
REMARK  193  A    between atoms: _461  and  _462
REMARK  194  A    between atoms: _461  and  _464
REMARK  195  A    between atoms: _464  and  _465
REMARK  196  A    between atoms: _470  and  _471
REMARK  197  A    between atoms: _473  and  _475
REMARK  198  A    between atoms: _475  and  _476
REMARK  199  A    between atoms: _478  and  _480
REMARK  200  A    between atoms: _480  and  _481
REMARK  201  A    between atoms: _480  and  _483
REMARK  202  A    between atoms: _483  and  _484
REMARK  203  A    between atoms: _490  and  _492
REMARK  204  A    between atoms: _492  and  _493
REMARK  205  A    between atoms: _492  and  _495
REMARK  206  A    between atoms: _495  and  _496
REMARK  207  A    between atoms: _502  and  _504
REMARK  208  A    between atoms: _504  and  _505
REMARK  209  A    between atoms: _507  and  _509
REMARK  210  A    between atoms: _509  and  _510
REMARK  211  A    between atoms: _512  and  _514
REMARK  212  A    between atoms: _514  and  _515
REMARK  213  A    between atoms: _514  and  _517
REMARK  214  A    between atoms: _517  and  _518
REMARK  215  A    between atoms: _518  and  _519
REMARK  216  A    between atoms: _524  and  _526
REMARK  217  A    between atoms: _526  and  _527
REMARK  218  A    between atoms: _529  and  _531
REMARK  219  A    between atoms: _531  and  _532
REMARK  220  A    between atoms: _531  and  _534
REMARK  221  A    between atoms: _534  and  _535
REMARK  222  A    between atoms: _538  and  _540
REMARK  223  A    between atoms: _540  and  _541
REMARK  224  A    between atoms: _543  and  _545
REMARK  225  A    between atoms: _545  and  _546
REMARK  226  A    between atoms: _545  and  _548
REMARK  227  A    between atoms: _548  and  _549
REMARK  228  A    between atoms: _552  and  _554
REMARK  229  A    between atoms: _554  and  _555
REMARK  230  A    between atoms: _554  and  _557
REMARK  231  A    between atoms: _557  and  _558
REMARK  232  A    between atoms: _563  and  _565
REMARK  233  A    between atoms: _565  and  _566
REMARK  234  A    between atoms: _565  and  _568
REMARK  235  A    between atoms: _568  and  _569
REMARK  236  A    between atoms: _572  and  _574
REMARK  237  A    between atoms: _574  and  _575
REMARK  238  A    between atoms: _577  and  _579
REMARK  239  A    between atoms: _579  and  _580
REMARK  240  A    between atoms: _579  and  _582
REMARK  241  A    between atoms: _582  and  _583
REMARK                            x       y       z     vdW  Elec       q    Type
REMARK                         _______ _______ _______ _____ _____    ______ ____
ROOT
ATOM      1  CA  GLY A   1      -8.382  23.808  23.041  0.00  0.00    +0.156 C 
ENDROOT
BRANCH   1   2
ATOM      2  N   GLY A   1      -8.561  22.846  24.106  0.00  0.00    -0.238 NA
ATOM      3  H   GLY A   1      -9.495  22.409  24.242  0.00  0.00    +0.142 HD
ENDBRANCH   1   2
BRANCH   1   4
ATOM      4  C   GLY A   1      -8.199  23.257  21.626  0.00  0.00    +0.226 C 
ATOM      5  O   GLY A   1      -7.592  23.946  20.761  0.00  0.00    -0.287 OA
ENDBRANCH   1   4
TORSDOF 2
REMARK  Name = ../refined-set-2016/1gvw/1gvw_pocket.pdb
REMARK  241 active torsions:
REMARK  status: ('A' for Active; 'I' for Inactive)
REMARK    1  A    between atoms: _1  and  _3
REMARK    2  A    between atoms: _3  and  _4
REMARK    3  A    between atoms: _3  and  _6
REMARK    4  A    between atoms: _6  and  _7
REMARK    5  A    between atoms: _10  and  _12
REMARK    6  A    between atoms: _12  and  _13
REMARK    7  A    between atoms: _12  and  _15
REMARK    8  A    between atoms: _15  and  _16
REMARK    9  A    between atoms: _19  and  _21
REMARK   10  A    between atoms: _21  and  _22
REMARK   11  A    between atoms: _21  and  _24
REMARK   12  A    between atoms: _24  and  _25
REMARK   13  A    between atoms: _28  and  _30
REMARK   14  A    between atoms: _30  and  _31
REMARK   15  A    between atoms: _30  and  _33
REMARK   16  A    between atoms: _33  and  _34
REMARK   17  A    between atoms: _37  and  _39
REMARK   18  A    between atoms: _39  and  _40
REMARK   19  A    between atoms: _39  and  _42
REMARK   20  A    between atoms: _42  and  _43
REMARK   21  A    between atoms: _46  and  _48
REMARK   22  A    between atoms: _48  and  _49
REMARK   23  A    between atoms: _52  and  _54
REMARK   24  A    between atoms: _54  and  _55
REMARK   25  A    between atoms: _54  and  _57
REMARK   26  A    between atoms: _57  and  _58
REMARK   27  A    between atoms: _63  and  _64
REMARK   28  A    between atoms: _66  and  _68
REMARK   29  A    between atoms: _68  and  _69
REMARK   30  A    between atoms: _68  and  _71
REMARK   31  A    between atoms: _71  and  _72
REMARK   32  A    between atoms: _75  and  _77
REMARK   33  A    between atoms: _77  and  _78
REMARK   34  A    between atoms: _77  and  _80
REMARK   35  A    between atoms: _80  and  _81
REMARK   36  A    between atoms: _87  and  _89
REMARK   37  A    between atoms: _89  and  _90
REMARK   38  A    between atoms: _89  and  _92
REMARK   39  A    between atoms: _92  and  _93
REMARK   40  A    between atoms: _96  and  _98
REMARK   41  A    between atoms: _98  and  _99
REMARK   42  A    between atoms: _98  and  _101
REMARK   43  A    between atoms: _101  and  _102
REMARK   44  A    between atoms: _105  and  _107
REMARK   45  A    between atoms: _107  and  _108
REMARK   46  A    between atoms: _110  and  _112
REMARK   47  A    between atoms: _112  and  _113
REMARK   48  A    between atoms: _112  and  _115
REMARK   49  A    between atoms: _115  and  _116
REMARK   50  A    between atoms: _118  and  _120
REMARK   51  A    between atoms: _120  and  _121
REMARK   52  A    between atoms: _120  and  _123
REMARK   53  A    between atoms: _123  and  _124
REMARK   54  A    between atoms: _126  and  _128
REMARK   55  A    between atoms: _128  and  _129
REMARK   56  A    between atoms: _128  and  _131
REMARK   57  A    between atoms: _131  and  _132
REMARK   58  A    between atoms: _135  and  _137
REMARK   59  A    between atoms: _137  and  _138
REMARK   60  A    between atoms: _137  and  _140
REMARK   61  A    between atoms: _140  and  _141
REMARK   62  A    between atoms: _151  and  _153
REMARK   63  A    between atoms: _153  and  _154
REMARK   64  A    between atoms: _153  and  _156
REMARK   65  A    between atoms: _156  and  _157
REMARK   66  A    between atoms: _159  and  _161
REMARK   67  A    between atoms: _161  and  _162
REMARK   68  A    between atoms: _161  and  _164
REMARK   69  A    between atoms: _164  and  _165
REMARK   70  A    between atoms: _168  and  _170
REMARK   71  A    between atoms: _170  and  _171
REMARK   72  A    between atoms: _170  and  _173
REMARK   73  A    between atoms: _173  and  _174
REMARK   74  A    between atoms: _176  and  _178
REMARK   75  A    between atoms: _178  and  _179
REMARK   76  A    between atoms: _178  and  _181
REMARK   77  A    between atoms: _181  and  _182
REMARK   78  A    between atoms: _187  and  _188
REMARK   79  A    between atoms: _190  and  _192
REMARK   80  A    between atoms: _192  and  _193
REMARK   81  A    between atoms: _195  and  _197
REMARK   82  A    between atoms: _197  and  _198
REMARK   83  A    between atoms: _197  and  _200
REMARK   84  A    between atoms: _200  and  _201
REMARK   85  A    between atoms: _204  and  _206
REMARK   86  A    between atoms: _206  and  _207
REMARK   87  A    between atoms: _209  and  _211
REMARK   88  A    between atoms: _211  and  _212
REMARK   89  A    between atoms: _211  and  _214
REMARK   90  A    between atoms: _214  and  _215
REMARK   91  A    between atoms: _217  and  _219
REMARK   92  A    between atoms: _219  and  _220
REMARK   93  A    between atoms: _219  and  _222
REMARK   94  A    between atoms: _222  and  _223
REMARK   95  A    between atoms: _225  and  _227
REMARK   96  A    between atoms: _227  and  _228
REMARK   97  A    between atoms: _227  and  _230
REMARK   98  A    between atoms: _230  and  _231
REMARK   99  A    between atoms: _233  and  _235
REMARK  100  A    between atoms: _235  and  _236
REMARK  101  A    between atoms: _235  and  _238
REMARK  102  A    between atoms: _238  and  _239
REMARK  103  A    between atoms: _245  and  _247
REMARK  104  A    between atoms: _247  and  _248
REMARK  105  A    between atoms: _247  and  _250
REMARK  106  A    between atoms: _250  and  _251
REMARK  107  A    between atoms: _254  and  _256
REMARK  108  A    between atoms: _256  and  _257
REMARK  109  A    between atoms: _256  and  _259
REMARK  110  A    between atoms: _259  and  _260
REMARK  111  A    between atoms: _263  and  _265
REMARK  112  A    between atoms: _265  and  _266
REMARK  113  A    between atoms: _265  and  _268
REMARK  114  A    between atoms: _268  and  _269
REMARK  115  A    between atoms: _272  and  _274
REMARK  116  A    between atoms: _274  and  _275
REMARK  117  A    between atoms: _277  and  _279
REMARK  118  A    between atoms: _279  and  _280
REMARK  119  A    between atoms: _279  and  _282
REMARK  120  A    between atoms: _282  and  _283
REMARK  121  A    between atoms: _286  and  _288
REMARK  122  A    between atoms: _288  and  _289
REMARK  123  A    between atoms: _288  and  _291
REMARK  124  A    between atoms: _291  and  _292
REMARK  125  A    between atoms: _295  and  _297
REMARK  126  A    between atoms: _297  and  _298
REMARK  127  A    between atoms: _300  and  _302
REMARK  128  A    between atoms: _302  and  _303
REMARK  129  A    between atoms: _302  and  _305
REMARK  130  A    between atoms: _305  and  _306
REMARK  131  A    between atoms: _309  and  _311
REMARK  132  A    between atoms: _311  and  _312
REMARK  133  A    between atoms: _315  and  _317
REMARK  134  A    between atoms: _317  and  _318
REMARK  135  A    between atoms: _317  and  _320
REMARK  136  A    between atoms: _320  and  _321
REMARK  137  A    between atoms: _327  and  _329
REMARK  138  A    between atoms: _329  and  _330
REMARK  139  A    between atoms: _329  and  _332
REMARK  140  A    between atoms: _332  and  _333
REMARK  141  A    between atoms: _336  and  _338
REMARK  142  A    between atoms: _338  and  _339
REMARK  143  A    between atoms: _338  and  _341
REMARK  144  A    between atoms: _341  and  _342
REMARK  145  A    between atoms: _345  and  _347
REMARK  146  A    between atoms: _347  and  _348
REMARK  147  A    between atoms: _347  and  _350
REMARK  148  A    between atoms: _350  and  _351
REMARK  149  A    between atoms: _356  and  _358
REMARK  150  A    between atoms: _358  and  _359
REMARK  151  A    between atoms: _358  and  _361
REMARK  152  A    between atoms: _361  and  _362
REMARK  153  A    between atoms: _365  and  _367
REMARK  154  A    between atoms: _367  and  _368
REMARK  155  A    between atoms: _367  and  _370
REMARK  156  A    between atoms: _370  and  _371
REMARK  157  A    between atoms: _371  and  _372
REMARK  158  A    between atoms: _377  and  _379
REMARK  159  A    between atoms: _379  and  _380
REMARK  160  A    between atoms: _382  and  _384
REMARK  161  A    between atoms: _384  and  _385
REMARK  162  A    between atoms: _384  and  _387
REMARK  163  A    between atoms: _387  and  _388
REMARK  164  A    between atoms: _394  and  _396
REMARK  165  A    between atoms: _396  and  _397
REMARK  166  A    between atoms: _396  and  _399
REMARK  167  A    between atoms: _399  and  _400
REMARK  168  A    between atoms: _403  and  _405
REMARK  169  A    between atoms: _405  and  _406
REMARK  170  A    between atoms: _409  and  _411
REMARK  171  A    between atoms: _411  and  _412
REMARK  172  A    between atoms: _411  and  _414
REMARK  173  A    between atoms: _414  and  _415
REMARK  174  A    between atoms: _418  and  _420
REMARK  175  A    between atoms: _420  and  _421
REMARK  176  A    between atoms: _420  and  _423
REMARK  177  A    between atoms: _423  and  _424
REMARK  178  A    between atoms: _427  and  _429
REMARK  179  A    between atoms: _429  and  _430
REMARK  180  A    between atoms: _432  and  _434
REMARK  181  A    between atoms: _434  and  _435
REMARK  182  A    between atoms: _434  and  _437
REMARK  183  A    between atoms: _437  and  _438
REMARK  184  A    between atoms: _441  and  _443
REMARK  185  A    between atoms: _443  and  _444
REMARK  186  A    between atoms: _443  and  _446
REMARK  187  A    between atoms: _446  and  _447
REMARK  188  A    between atoms: _450  and  _452
REMARK  189  A    between atoms: _452  and  _453
REMARK  190  A    between atoms: _452  and  _455
REMARK  191  A    between atoms: _455  and  _456
REMARK  192  A    between atoms: _459  and  _461
REMARK  193  A    between atoms: _461  and  _462
REMARK  194  A    between atoms: _461  and  _464
REMARK  195  A    between atoms: _464  and  _465
REMARK  196  A    between atoms: _470  and  _471
REMARK  197  A    between atoms: _473  and  _475
REMARK  198  A    between atoms: _475  and  _476
REMARK  199  A    between atoms: _478  and  _480
REMARK  200  A    between atoms: _480  and  _481
REMARK  201  A    between atoms: _480  and  _483
REMARK  202  A    between atoms: _483  and  _484
REMARK  203  A    between atoms: _490  and  _492
REMARK  204  A    between atoms: _492  and  _493
REMARK  205  A    between atoms: _492  and  _495
REMARK  206  A    between atoms: _495  and  _496
REMARK  207  A    between atoms: _502  and  _504
REMARK  208  A    between atoms: _504  and  _505
REMARK  209  A    between atoms: _507  and  _509
REMARK  210  A    between atoms: _509  and  _510
REMARK  211  A    between atoms: _512  and  _514
REMARK  212  A    between atoms: _514  and  _515
REMARK  213  A    between atoms: _514  and  _517
REMARK  214  A    between atoms: _517  and  _518
REMARK  215  A    between atoms: _518  and  _519
REMARK  216  A    between atoms: _524  and  _526
REMARK  217  A    between atoms: _526  and  _527
REMARK  218  A    between atoms: _529  and  _531
REMARK  219  A    between atoms: _531  and  _532
REMARK  220  A    between atoms: _531  and  _534
REMARK  221  A    between atoms: _534  and  _535
REMARK  222  A    between atoms: _538  and  _540
REMARK  223  A    between atoms: _540  and  _541
REMARK  224  A    between atoms: _543  and  _545
REMARK  225  A    between atoms: _545  and  _546
REMARK  226  A    between atoms: _545  and  _548
REMARK  227  A    between atoms: _548  and  _549
REMARK  228  A    between atoms: _552  and  _554
REMARK  229  A    between atoms: _554  and  _555
REMARK  230  A    between atoms: _554  and  _557
REMARK  231  A    between atoms: _557  and  _558
REMARK  232  A    between atoms: _563  and  _565
REMARK  233  A    between atoms: _565  and  _566
REMARK  234  A    between atoms: _565  and  _568
REMARK  235  A    between atoms: _568  and  _569
REMARK  236  A    between atoms: _572  and  _574
REMARK  237  A    between atoms: _574  and  _575
REMARK  238  A    between atoms: _577  and  _579
REMARK  239  A    between atoms: _579  and  _580
REMARK  240  A    between atoms: _579  and  _582
REMARK  241  A    between atoms: _582  and  _583
REMARK                            x       y       z     vdW  Elec       q    Type
REMARK                         _______ _______ _______ _____ _____    ______ ____
ROOT
ATOM      1  CB  PHE A   1       0.991  17.269  18.315  0.00  0.00    +0.051 C 
ENDROOT
BRANCH   1   2
ATOM      2  CG  PHE A   1       1.920  18.346  18.808  0.00  0.00    -0.020 A 
ATOM      3  CD2 PHE A   1       1.670  19.013  20.004  0.00  0.00    -0.004 A 
ATOM      4  CE2 PHE A   1       2.561  19.967  20.491  0.00  0.00    -0.000 A 
ATOM      5  CZ  PHE A   1       3.698  20.287  19.746  0.00  0.00    -0.000 A 
ATOM      6  CE1 PHE A   1       3.950  19.675  18.520  0.00  0.00    -0.000 A 
ATOM      7  CD1 PHE A   1       3.051  18.708  18.086  0.00  0.00    -0.004 A 
ENDBRANCH   1   2
BRANCH   1   8
ATOM      8  CA  PHE A   1       1.720  15.923  18.159  0.00  0.00    +0.137 C 
BRANCH   8   9
ATOM      9  N   PHE A   1       0.805  14.909  17.564  0.00  0.00    -0.239 NA
ATOM     10  H   PHE A   1      -0.219  15.088  17.553  0.00  0.00    +0.142 HD
ENDBRANCH   8   9
BRANCH   8  11
ATOM     11  C   PHE A   1       2.399  15.453  19.428  0.00  0.00    +0.224 C 
ATOM     12  O   PHE A   1       3.650  15.605  19.570  0.00  0.00    -0.287 OA
ENDBRANCH   8  11
ENDBRANCH   1   8
TORSDOF 4
REMARK  Name = ../refined-set-2016/1gvw/1gvw_pocket.pdb
REMARK  241 active torsions:
REMARK  status: ('A' for Active; 'I' for Inactive)
REMARK    1  A    between atoms: _1  and  _3
REMARK    2  A    between atoms: _3  and  _4
REMARK    3  A    between atoms: _3  and  _6
REMARK    4  A    between atoms: _6  and  _7
REMARK    5  A    between atoms: _10  and  _12
REMARK    6  A    between atoms: _12  and  _13
REMARK    7  A    between atoms: _12  and  _15
REMARK    8  A    between atoms: _15  and  _16
REMARK    9  A    between atoms: _19  and  _21
REMARK   10  A    between atoms: _21  and  _22
REMARK   11  A    between atoms: _21  and  _24
REMARK   12  A    between atoms: _24  and  _25
REMARK   13  A    between atoms: _28  and  _30
REMARK   14  A    between atoms: _30  and  _31
REMARK   15  A    between atoms: _30  and  _33
REMARK   16  A    between atoms: _33  and  _34
REMARK   17  A    between atoms: _37  and  _39
REMARK   18  A    between atoms: _39  and  _40
REMARK   19  A    between atoms: _39  and  _42
REMARK   20  A    between atoms: _42  and  _43
REMARK   21  A    between atoms: _46  and  _48
REMARK   22  A    between atoms: _48  and  _49
REMARK   23  A    between atoms: _52  and  _54
REMARK   24  A    between atoms: _54  and  _55
REMARK   25  A    between atoms: _54  and  _57
REMARK   26  A    between atoms: _57  and  _58
REMARK   27  A    between atoms: _63  and  _64
REMARK   28  A    between atoms: _66  and  _68
REMARK   29  A    between atoms: _68  and  _69
REMARK   30  A    between atoms: _68  and  _71
REMARK   31  A    between atoms: _71  and  _72
REMARK   32  A    between atoms: _75  and  _77
REMARK   33  A    between atoms: _77  and  _78
REMARK   34  A    between atoms: _77  and  _80
REMARK   35  A    between atoms: _80  and  _81
REMARK   36  A    between atoms: _87  and  _89
REMARK   37  A    between atoms: _89  and  _90
REMARK   38  A    between atoms: _89  and  _92
REMARK   39  A    between atoms: _92  and  _93
REMARK   40  A    between atoms: _96  and  _98
REMARK   41  A    between atoms: _98  and  _99
REMARK   42  A    between atoms: _98  and  _101
REMARK   43  A    between atoms: _101  and  _102
REMARK   44  A    between atoms: _105  and  _107
REMARK   45  A    between atoms: _107  and  _108
REMARK   46  A    between atoms: _110  and  _112
REMARK   47  A    between atoms: _112  and  _113
REMARK   48  A    between atoms: _112  and  _115
REMARK   49  A    between atoms: _115  and  _116
REMARK   50  A    between atoms: _118  and  _120
REMARK   51  A    between atoms: _120  and  _121
REMARK   52  A    between atoms: _120  and  _123
REMARK   53  A    between atoms: _123  and  _124
REMARK   54  A    between atoms: _126  and  _128
REMARK   55  A    between atoms: _128  and  _129
REMARK   56  A    between atoms: _128  and  _131
REMARK   57  A    between atoms: _131  and  _132
REMARK   58  A    between atoms: _135  and  _137
REMARK   59  A    between atoms: _137  and  _138
REMARK   60  A    between atoms: _137  and  _140
REMARK   61  A    between atoms: _140  and  _141
REMARK   62  A    between atoms: _151  and  _153
REMARK   63  A    between atoms: _153  and  _154
REMARK   64  A    between atoms: _153  and  _156
REMARK   65  A    between atoms: _156  and  _157
REMARK   66  A    between atoms: _159  and  _161
REMARK   67  A    between atoms: _161  and  _162
REMARK   68  A    between atoms: _161  and  _164
REMARK   69  A    between atoms: _164  and  _165
REMARK   70  A    between atoms: _168  and  _170
REMARK   71  A    between atoms: _170  and  _171
REMARK   72  A    between atoms: _170  and  _173
REMARK   73  A    between atoms: _173  and  _174
REMARK   74  A    between atoms: _176  and  _178
REMARK   75  A    between atoms: _178  and  _179
REMARK   76  A    between atoms: _178  and  _181
REMARK   77  A    between atoms: _181  and  _182
REMARK   78  A    between atoms: _187  and  _188
REMARK   79  A    between atoms: _190  and  _192
REMARK   80  A    between atoms: _192  and  _193
REMARK   81  A    between atoms: _195  and  _197
REMARK   82  A    between atoms: _197  and  _198
REMARK   83  A    between atoms: _197  and  _200
REMARK   84  A    between atoms: _200  and  _201
REMARK   85  A    between atoms: _204  and  _206
REMARK   86  A    between atoms: _206  and  _207
REMARK   87  A    between atoms: _209  and  _211
REMARK   88  A    between atoms: _211  and  _212
REMARK   89  A    between atoms: _211  and  _214
REMARK   90  A    between atoms: _214  and  _215
REMARK   91  A    between atoms: _217  and  _219
REMARK   92  A    between atoms: _219  and  _220
REMARK   93  A    between atoms: _219  and  _222
REMARK   94  A    between atoms: _222  and  _223
REMARK   95  A    between atoms: _225  and  _227
REMARK   96  A    between atoms: _227  and  _228
REMARK   97  A    between atoms: _227  and  _230
REMARK   98  A    between atoms: _230  and  _231
REMARK   99  A    between atoms: _233  and  _235
REMARK  100  A    between atoms: _235  and  _236
REMARK  101  A    between atoms: _235  and  _238
REMARK  102  A    between atoms: _238  and  _239
REMARK  103  A    between atoms: _245  and  _247
REMARK  104  A    between atoms: _247  and  _248
REMARK  105  A    between atoms: _247  and  _250
REMARK  106  A    between atoms: _250  and  _251
REMARK  107  A    between atoms: _254  and  _256
REMARK  108  A    between atoms: _256  and  _257
REMARK  109  A    between atoms: _256  and  _259
REMARK  110  A    between atoms: _259  and  _260
REMARK  111  A    between atoms: _263  and  _265
REMARK  112  A    between atoms: _265  and  _266
REMARK  113  A    between atoms: _265  and  _268
REMARK  114  A    between atoms: _268  and  _269
REMARK  115  A    between atoms: _272  and  _274
REMARK  116  A    between atoms: _274  and  _275
REMARK  117  A    between atoms: _277  and  _279
REMARK  118  A    between atoms: _279  and  _280
REMARK  119  A    between atoms: _279  and  _282
REMARK  120  A    between atoms: _282  and  _283
REMARK  121  A    between atoms: _286  and  _288
REMARK  122  A    between atoms: _288  and  _289
REMARK  123  A    between atoms: _288  and  _291
REMARK  124  A    between atoms: _291  and  _292
REMARK  125  A    between atoms: _295  and  _297
REMARK  126  A    between atoms: _297  and  _298
REMARK  127  A    between atoms: _300  and  _302
REMARK  128  A    between atoms: _302  and  _303
REMARK  129  A    between atoms: _302  and  _305
REMARK  130  A    between atoms: _305  and  _306
REMARK  131  A    between atoms: _309  and  _311
REMARK  132  A    between atoms: _311  and  _312
REMARK  133  A    between atoms: _315  and  _317
REMARK  134  A    between atoms: _317  and  _318
REMARK  135  A    between atoms: _317  and  _320
REMARK  136  A    between atoms: _320  and  _321
REMARK  137  A    between atoms: _327  and  _329
REMARK  138  A    between atoms: _329  and  _330
REMARK  139  A    between atoms: _329  and  _332
REMARK  140  A    between atoms: _332  and  _333
REMARK  141  A    between atoms: _336  and  _338
REMARK  142  A    between atoms: _338  and  _339
REMARK  143  A    between atoms: _338  and  _341
REMARK  144  A    between atoms: _341  and  _342
REMARK  145  A    between atoms: _345  and  _347
REMARK  146  A    between atoms: _347  and  _348
REMARK  147  A    between atoms: _347  and  _350
REMARK  148  A    between atoms: _350  and  _351
REMARK  149  A    between atoms: _356  and  _358
REMARK  150  A    between atoms: _358  and  _359
REMARK  151  A    between atoms: _358  and  _361
REMARK  152  A    between atoms: _361  and  _362
REMARK  153  A    between atoms: _365  and  _367
REMARK  154  A    between atoms: _367  and  _368
REMARK  155  A    between atoms: _367  and  _370
REMARK  156  A    between atoms: _370  and  _371
REMARK  157  A    between atoms: _371  and  _372
REMARK  158  A    between atoms: _377  and  _379
REMARK  159  A    between atoms: _379  and  _380
REMARK  160  A    between atoms: _382  and  _384
REMARK  161  A    between atoms: _384  and  _385
REMARK  162  A    between atoms: _384  and  _387
REMARK  163  A    between atoms: _387  and  _388
REMARK  164  A    between atoms: _394  and  _396
REMARK  165  A    between atoms: _396  and  _397
REMARK  166  A    between atoms: _396  and  _399
REMARK  167  A    between atoms: _399  and  _400
REMARK  168  A    between atoms: _403  and  _405
REMARK  169  A    between atoms: _405  and  _406
REMARK  170  A    between atoms: _409  and  _411
REMARK  171  A    between atoms: _411  and  _412
REMARK  172  A    between atoms: _411  and  _414
REMARK  173  A    between atoms: _414  and  _415
REMARK  174  A    between atoms: _418  and  _420
REMARK  175  A    between atoms: _420  and  _421
REMARK  176  A    between atoms: _420  and  _423
REMARK  177  A    between atoms: _423  and  _424
REMARK  178  A    between atoms: _427  and  _429
REMARK  179  A    between atoms: _429  and  _430
REMARK  180  A    between atoms: _432  and  _434
REMARK  181  A    between atoms: _434  and  _435
REMARK  182  A    between atoms: _434  and  _437
REMARK  183  A    between atoms: _437  and  _438
REMARK  184  A    between atoms: _441  and  _443
REMARK  185  A    between atoms: _443  and  _444
REMARK  186  A    between atoms: _443  and  _446
REMARK  187  A    between atoms: _446  and  _447
REMARK  188  A    between atoms: _450  and  _452
REMARK  189  A    between atoms: _452  and  _453
REMARK  190  A    between atoms: _452  and  _455
REMARK  191  A    between atoms: _455  and  _456
REMARK  192  A    between atoms: _459  and  _461
REMARK  193  A    between atoms: _461  and  _462
REMARK  194  A    between atoms: _461  and  _464
REMARK  195  A    between atoms: _464  and  _465
REMARK  196  A    between atoms: _470  and  _471
REMARK  197  A    between atoms: _473  and  _475
REMARK  198  A    between atoms: _475  and  _476
REMARK  199  A    between atoms: _478  and  _480
REMARK  200  A    between atoms: _480  and  _481
REMARK  201  A    between atoms: _480  and  _483
REMARK  202  A    between atoms: _483  and  _484
REMARK  203  A    between atoms: _490  and  _492
REMARK  204  A    between atoms: _492  and  _493
REMARK  205  A    between atoms: _492  and  _495
REMARK  206  A    between atoms: _495  and  _496
REMARK  207  A    between atoms: _502  and  _504
REMARK  208  A    between atoms: _504  and  _505
REMARK  209  A    between atoms: _507  and  _509
REMARK  210  A    between atoms: _509  and  _510
REMARK  211  A    between atoms: _512  and  _514
REMARK  212  A    between atoms: _514  and  _515
REMARK  213  A    between atoms: _514  and  _517
REMARK  214  A    between atoms: _517  and  _518
REMARK  215  A    between atoms: _518  and  _519
REMARK  216  A    between atoms: _524  and  _526
REMARK  217  A    between atoms: _526  and  _527
REMARK  218  A    between atoms: _529  and  _531
REMARK  219  A    between atoms: _531  and  _532
REMARK  220  A    between atoms: _531  and  _534
REMARK  221  A    between atoms: _534  and  _535
REMARK  222  A    between atoms: _538  and  _540
REMARK  223  A    between atoms: _540  and  _541
REMARK  224  A    between atoms: _543  and  _545
REMARK  225  A    between atoms: _545  and  _546
REMARK  226  A    between atoms: _545  and  _548
REMARK  227  A    between atoms: _548  and  _549
REMARK  228  A    between atoms: _552  and  _554
REMARK  229  A    between atoms: _554  and  _555
REMARK  230  A    between atoms: _554  and  _557
REMARK  231  A    between atoms: _557  and  _558
REMARK  232  A    between atoms: _563  and  _565
REMARK  233  A    between atoms: _565  and  _566
REMARK  234  A    between atoms: _565  and  _568
REMARK  235  A    between atoms: _568  and  _569
REMARK  236  A    between atoms: _572  and  _574
REMARK  237  A    between atoms: _574  and  _575
REMARK  238  A    between atoms: _577  and  _579
REMARK  239  A    between atoms: _579  and  _580
REMARK  240  A    between atoms: _579  and  _582
REMARK  241  A    between atoms: _582  and  _583
REMARK                            x       y       z     vdW  Elec       q    Type
REMARK                         _______ _______ _______ _____ _____    ______ ____
ROOT
ATOM      1  C   PHE A   1      -2.964  16.273  19.392  0.00  0.00    +0.239 C 
ATOM      2  O   PHE A   1      -1.875  15.883  18.922  0.00  0.00    -0.274 OA
ATOM      3  N   GLY A   2      -4.001  16.657  18.565  0.00  0.00    -0.296 N 
ATOM      4  H   GLY A   2      -4.881  17.027  18.978  0.00  0.00    +0.150 HD
ENDROOT
BRANCH   1   5
ATOM      5  CA  PHE A   1      -3.201  16.450  20.904  0.00  0.00    +0.149 C 
BRANCH   5   6
ATOM      6  N   PHE A   1      -2.694  15.263  21.631  0.00  0.00    -0.238 NA
ATOM      7  H   PHE A   1      -1.704  15.247  21.949  0.00  0.00    +0.142 HD
ENDBRANCH   5   6
BRANCH   5   8
ATOM      8  CB  PHE A   1      -2.471  17.736  21.415  0.00  0.00    +0.053 C 
BRANCH   8   9
ATOM      9  CG  PHE A   1      -3.182  19.041  21.054  0.00  0.00    -0.020 A 
ATOM     10  CD2 PHE A   1      -4.436  19.368  21.635  0.00  0.00    -0.004 A 
ATOM     11  CE2 PHE A   1      -5.100  20.555  21.331  0.00  0.00    -0.000 A 
ATOM     12  CZ  PHE A   1      -4.534  21.459  20.436  0.00  0.00    -0.000 A 
ATOM     13  CE1 PHE A   1      -3.296  21.171  19.852  0.00  0.00    -0.000 A 
ATOM     14  CD1 PHE A   1      -2.656  19.953  20.123  0.00  0.00    -0.004 A 
ENDBRANCH   8   9
ENDBRANCH   5   8
ENDBRANCH   1   5
BRANCH   3  15
ATOM     15  CA  GLY A   2      -3.872  16.548  17.118  0.00  0.00    +0.176 C 
BRANCH  15  16
ATOM     16  C   GLY A   2      -2.937  17.619  16.495  0.00  0.00    +0.243 C 
ATOM     17  O   GLY A   2      -2.904  18.805  16.887  0.00  0.00    -0.273 OA
ATOM     18  N   GLY A   3      -2.222  17.192  15.400  0.00  0.00    -0.296 N 
ATOM     19  H   GLY A   3      -2.306  16.202  15.093  0.00  0.00    +0.150 HD
BRANCH  18  20
ATOM     20  CA  GLY A   3      -1.353  18.092  14.664  0.00  0.00    +0.163 C 
BRANCH  20  21
ATOM     21  C   GLY A   3      -2.033  18.920  13.529  0.00  0.00    +0.229 C 
ATOM     22  O   GLY A   3      -1.378  19.788  12.956  0.00  0.00    -0.286 OA
ENDBRANCH  20  21
ENDBRANCH  18  20
ENDBRANCH  15  16
ENDBRANCH   3  15
TORSDOF 8
REMARK  Name = ../refined-set-2016/1gvw/1gvw_pocket.pdb
REMARK  241 active torsions:
REMARK  status: ('A' for Active; 'I' for Inactive)
REMARK    1  A    between atoms: _1  and  _3
REMARK    2  A    between atoms: _3  and  _4
REMARK    3  A    between atoms: _3  and  _6
REMARK    4  A    between atoms: _6  and  _7
REMARK    5  A    between atoms: _10  and  _12
REMARK    6  A    between atoms: _12  and  _13
REMARK    7  A    between atoms: _12  and  _15
REMARK    8  A    between atoms: _15  and  _16
REMARK    9  A    between atoms: _19  and  _21
REMARK   10  A    between atoms: _21  and  _22
REMARK   11  A    between atoms: _21  and  _24
REMARK   12  A    between atoms: _24  and  _25
REMARK   13  A    between atoms: _28  and  _30
REMARK   14  A    between atoms: _30  and  _31
REMARK   15  A    between atoms: _30  and  _33
REMARK   16  A    between atoms: _33  and  _34
REMARK   17  A    between atoms: _37  and  _39
REMARK   18  A    between atoms: _39  and  _40
REMARK   19  A    between atoms: _39  and  _42
REMARK   20  A    between atoms: _42  and  _43
REMARK   21  A    between atoms: _46  and  _48
REMARK   22  A    between atoms: _48  and  _49
REMARK   23  A    between atoms: _52  and  _54
REMARK   24  A    between atoms: _54  and  _55
REMARK   25  A    between atoms: _54  and  _57
REMARK   26  A    between atoms: _57  and  _58
REMARK   27  A    between atoms: _63  and  _64
REMARK   28  A    between atoms: _66  and  _68
REMARK   29  A    between atoms: _68  and  _69
REMARK   30  A    between atoms: _68  and  _71
REMARK   31  A    between atoms: _71  and  _72
REMARK   32  A    between atoms: _75  and  _77
REMARK   33  A    between atoms: _77  and  _78
REMARK   34  A    between atoms: _77  and  _80
REMARK   35  A    between atoms: _80  and  _81
REMARK   36  A    between atoms: _87  and  _89
REMARK   37  A    between atoms: _89  and  _90
REMARK   38  A    between atoms: _89  and  _92
REMARK   39  A    between atoms: _92  and  _93
REMARK   40  A    between atoms: _96  and  _98
REMARK   41  A    between atoms: _98  and  _99
REMARK   42  A    between atoms: _98  and  _101
REMARK   43  A    between atoms: _101  and  _102
REMARK   44  A    between atoms: _105  and  _107
REMARK   45  A    between atoms: _107  and  _108
REMARK   46  A    between atoms: _110  and  _112
REMARK   47  A    between atoms: _112  and  _113
REMARK   48  A    between atoms: _112  and  _115
REMARK   49  A    between atoms: _115  and  _116
REMARK   50  A    between atoms: _118  and  _120
REMARK   51  A    between atoms: _120  and  _121
REMARK   52  A    between atoms: _120  and  _123
REMARK   53  A    between atoms: _123  and  _124
REMARK   54  A    between atoms: _126  and  _128
REMARK   55  A    between atoms: _128  and  _129
REMARK   56  A    between atoms: _128  and  _131
REMARK   57  A    between atoms: _131  and  _132
REMARK   58  A    between atoms: _135  and  _137
REMARK   59  A    between atoms: _137  and  _138
REMARK   60  A    between atoms: _137  and  _140
REMARK   61  A    between atoms: _140  and  _141
REMARK   62  A    between atoms: _151  and  _153
REMARK   63  A    between atoms: _153  and  _154
REMARK   64  A    between atoms: _153  and  _156
REMARK   65  A    between atoms: _156  and  _157
REMARK   66  A    between atoms: _159  and  _161
REMARK   67  A    between atoms: _161  and  _162
REMARK   68  A    between atoms: _161  and  _164
REMARK   69  A    between atoms: _164  and  _165
REMARK   70  A    between atoms: _168  and  _170
REMARK   71  A    between atoms: _170  and  _171
REMARK   72  A    between atoms: _170  and  _173
REMARK   73  A    between atoms: _173  and  _174
REMARK   74  A    between atoms: _176  and  _178
REMARK   75  A    between atoms: _178  and  _179
REMARK   76  A    between atoms: _178  and  _181
REMARK   77  A    between atoms: _181  and  _182
REMARK   78  A    between atoms: _187  and  _188
REMARK   79  A    between atoms: _190  and  _192
REMARK   80  A    between atoms: _192  and  _193
REMARK   81  A    between atoms: _195  and  _197
REMARK   82  A    between atoms: _197  and  _198
REMARK   83  A    between atoms: _197  and  _200
REMARK   84  A    between atoms: _200  and  _201
REMARK   85  A    between atoms: _204  and  _206
REMARK   86  A    between atoms: _206  and  _207
REMARK   87  A    between atoms: _209  and  _211
REMARK   88  A    between atoms: _211  and  _212
REMARK   89  A    between atoms: _211  and  _214
REMARK   90  A    between atoms: _214  and  _215
REMARK   91  A    between atoms: _217  and  _219
REMARK   92  A    between atoms: _219  and  _220
REMARK   93  A    between atoms: _219  and  _222
REMARK   94  A    between atoms: _222  and  _223
REMARK   95  A    between atoms: _225  and  _227
REMARK   96  A    between atoms: _227  and  _228
REMARK   97  A    between atoms: _227  and  _230
REMARK   98  A    between atoms: _230  and  _231
REMARK   99  A    between atoms: _233  and  _235
REMARK  100  A    between atoms: _235  and  _236
REMARK  101  A    between atoms: _235  and  _238
REMARK  102  A    between atoms: _238  and  _239
REMARK  103  A    between atoms: _245  and  _247
REMARK  104  A    between atoms: _247  and  _248
REMARK  105  A    between atoms: _247  and  _250
REMARK  106  A    between atoms: _250  and  _251
REMARK  107  A    between atoms: _254  and  _256
REMARK  108  A    between atoms: _256  and  _257
REMARK  109  A    between atoms: _256  and  _259
REMARK  110  A    between atoms: _259  and  _260
REMARK  111  A    between atoms: _263  and  _265
REMARK  112  A    between atoms: _265  and  _266
REMARK  113  A    between atoms: _265  and  _268
REMARK  114  A    between atoms: _268  and  _269
REMARK  115  A    between atoms: _272  and  _274
REMARK  116  A    between atoms: _274  and  _275
REMARK  117  A    between atoms: _277  and  _279
REMARK  118  A    between atoms: _279  and  _280
REMARK  119  A    between atoms: _279  and  _282
REMARK  120  A    between atoms: _282  and  _283
REMARK  121  A    between atoms: _286  and  _288
REMARK  122  A    between atoms: _288  and  _289
REMARK  123  A    between atoms: _288  and  _291
REMARK  124  A    between atoms: _291  and  _292
REMARK  125  A    between atoms: _295  and  _297
REMARK  126  A    between atoms: _297  and  _298
REMARK  127  A    between atoms: _300  and  _302
REMARK  128  A    between atoms: _302  and  _303
REMARK  129  A    between atoms: _302  and  _305
REMARK  130  A    between atoms: _305  and  _306
REMARK  131  A    between atoms: _309  and  _311
REMARK  132  A    between atoms: _311  and  _312
REMARK  133  A    between atoms: _315  and  _317
REMARK  134  A    between atoms: _317  and  _318
REMARK  135  A    between atoms: _317  and  _320
REMARK  136  A    between atoms: _320  and  _321
REMARK  137  A    between atoms: _327  and  _329
REMARK  138  A    between atoms: _329  and  _330
REMARK  139  A    between atoms: _329  and  _332
REMARK  140  A    between atoms: _332  and  _333
REMARK  141  A    between atoms: _336  and  _338
REMARK  142  A    between atoms: _338  and  _339
REMARK  143  A    between atoms: _338  and  _341
REMARK  144  A    between atoms: _341  and  _342
REMARK  145  A    between atoms: _345  and  _347
REMARK  146  A    between atoms: _347  and  _348
REMARK  147  A    between atoms: _347  and  _350
REMARK  148  A    between atoms: _350  and  _351
REMARK  149  A    between atoms: _356  and  _358
REMARK  150  A    between atoms: _358  and  _359
REMARK  151  A    between atoms: _358  and  _361
REMARK  152  A    between atoms: _361  and  _362
REMARK  153  A    between atoms: _365  and  _367
REMARK  154  A    between atoms: _367  and  _368
REMARK  155  A    between atoms: _367  and  _370
REMARK  156  A    between atoms: _370  and  _371
REMARK  157  A    between atoms: _371  and  _372
REMARK  158  A    between atoms: _377  and  _379
REMARK  159  A    between atoms: _379  and  _380
REMARK  160  A    between atoms: _382  and  _384
REMARK  161  A    between atoms: _384  and  _385
REMARK  162  A    between atoms: _384  and  _387
REMARK  163  A    between atoms: _387  and  _388
REMARK  164  A    between atoms: _394  and  _396
REMARK  165  A    between atoms: _396  and  _397
REMARK  166  A    between atoms: _396  and  _399
REMARK  167  A    between atoms: _399  and  _400
REMARK  168  A    between atoms: _403  and  _405
REMARK  169  A    between atoms: _405  and  _406
REMARK  170  A    between atoms: _409  and  _411
REMARK  171  A    between atoms: _411  and  _412
REMARK  172  A    between atoms: _411  and  _414
REMARK  173  A    between atoms: _414  and  _415
REMARK  174  A    between atoms: _418  and  _420
REMARK  175  A    between atoms: _420  and  _421
REMARK  176  A    between atoms: _420  and  _423
REMARK  177  A    between atoms: _423  and  _424
REMARK  178  A    between atoms: _427  and  _429
REMARK  179  A    between atoms: _429  and  _430
REMARK  180  A    between atoms: _432  and  _434
REMARK  181  A    between atoms: _434  and  _435
REMARK  182  A    between atoms: _434  and  _437
REMARK  183  A    between atoms: _437  and  _438
REMARK  184  A    between atoms: _441  and  _443
REMARK  185  A    between atoms: _443  and  _444
REMARK  186  A    between atoms: _443  and  _446
REMARK  187  A    between atoms: _446  and  _447
REMARK  188  A    between atoms: _450  and  _452
REMARK  189  A    between atoms: _452  and  _453
REMARK  190  A    between atoms: _452  and  _455
REMARK  191  A    between atoms: _455  and  _456
REMARK  192  A    between atoms: _459  and  _461
REMARK  193  A    between atoms: _461  and  _462
REMARK  194  A    between atoms: _461  and  _464
REMARK  195  A    between atoms: _464  and  _465
REMARK  196  A    between atoms: _470  and  _471
REMARK  197  A    between atoms: _473  and  _475
REMARK  198  A    between atoms: _475  and  _476
REMARK  199  A    between atoms: _478  and  _480
REMARK  200  A    between atoms: _480  and  _481
REMARK  201  A    between atoms: _480  and  _483
REMARK  202  A    between atoms: _483  and  _484
REMARK  203  A    between atoms: _490  and  _492
REMARK  204  A    between atoms: _492  and  _493
REMARK  205  A    between atoms: _492  and  _495
REMARK  206  A    between atoms: _495  and  _496
REMARK  207  A    between atoms: _502  and  _504
REMARK  208  A    between atoms: _504  and  _505
REMARK  209  A    between atoms: _507  and  _509
REMARK  210  A    between atoms: _509  and  _510
REMARK  211  A    between atoms: _512  and  _514
REMARK  212  A    between atoms: _514  and  _515
REMARK  213  A    between atoms: _514  and  _517
REMARK  214  A    between atoms: _517  and  _518
REMARK  215  A    between atoms: _518  and  _519
REMARK  216  A    between atoms: _524  and  _526
REMARK  217  A    between atoms: _526  and  _527
REMARK  218  A    between atoms: _529  and  _531
REMARK  219  A    between atoms: _531  and  _532
REMARK  220  A    between atoms: _531  and  _534
REMARK  221  A    between atoms: _534  and  _535
REMARK  222  A    between atoms: _538  and  _540
REMARK  223  A    between atoms: _540  and  _541
REMARK  224  A    between atoms: _543  and  _545
REMARK  225  A    between atoms: _545  and  _546
REMARK  226  A    between atoms: _545  and  _548
REMARK  227  A    between atoms: _548  and  _549
REMARK  228  A    between atoms: _552  and  _554
REMARK  229  A    between atoms: _554  and  _555
REMARK  230  A    between atoms: _554  and  _557
REMARK  231  A    between atoms: _557  and  _558
REMARK  232  A    between atoms: _563  and  _565
REMARK  233  A    between atoms: _565  and  _566
REMARK  234  A    between atoms: _565  and  _568
REMARK  235  A    between atoms: _568  and  _569
REMARK  236  A    between atoms: _572  and  _574
REMARK  237  A    between atoms: _574  and  _575
REMARK  238  A    between atoms: _577  and  _579
REMARK  239  A    between atoms: _579  and  _580
REMARK  240  A    between atoms: _579  and  _582
REMARK  241  A    between atoms: _582  and  _583
REMARK                            x       y       z     vdW  Elec       q    Type
REMARK                         _______ _______ _______ _____ _____    ______ ____
ROOT
ATOM      1  CB  GLN A   1      -5.905  22.567  15.114  0.00  0.00    +0.035 C 
ENDROOT
BRANCH   1   2
ATOM      2  CA  GLN A   1      -6.590  21.911  13.870  0.00  0.00    +0.134 C 
BRANCH   2   3
ATOM      3  N   GLN A   1      -5.557  21.185  13.057  0.00  0.00    -0.239 NA
ATOM      4  H   GLN A   1      -4.952  21.732  12.411  0.00  0.00    +0.142 HD
ENDBRANCH   2   3
BRANCH   2   5
ATOM      5  C   GLN A   1      -7.292  22.984  12.985  0.00  0.00    +0.224 C 
ATOM      6  O   GLN A   1      -6.755  23.392  11.913  0.00  0.00    -0.287 OA
ENDBRANCH   2   5
ENDBRANCH   1   2
BRANCH   1   7
ATOM      7  CG  GLN A   1      -5.216  21.582  16.093  0.00  0.00    +0.087 C 
BRANCH   7   8
ATOM      8  CD  GLN A   1      -6.198  20.686  16.859  0.00  0.00    +0.219 C 
ATOM      9  NE2 GLN A   1      -5.637  19.668  17.553  0.00  0.00    -0.329 N 
ATOM     10 HE21 GLN A   1      -6.233  19.041  18.130  0.00  0.00    +0.145 HD
ATOM     11 HE22 GLN A   1      -4.610  19.513  17.509  0.00  0.00    +0.145 HD
ATOM     12  OE1 GLN A   1      -7.437  20.909  16.885  0.00  0.00    -0.275 OA
ENDBRANCH   7   8
ENDBRANCH   1   7
TORSDOF 5
REMARK  Name = ../refined-set-2016/1gvw/1gvw_pocket.pdb
REMARK  241 active torsions:
REMARK  status: ('A' for Active; 'I' for Inactive)
REMARK    1  A    between atoms: _1  and  _3
REMARK    2  A    between atoms: _3  and  _4
REMARK    3  A    between atoms: _3  and  _6
REMARK    4  A    between atoms: _6  and  _7
REMARK    5  A    between atoms: _10  and  _12
REMARK    6  A    between atoms: _12  and  _13
REMARK    7  A    between atoms: _12  and  _15
REMARK    8  A    between atoms: _15  and  _16
REMARK    9  A    between atoms: _19  and  _21
REMARK   10  A    between atoms: _21  and  _22
REMARK   11  A    between atoms: _21  and  _24
REMARK   12  A    between atoms: _24  and  _25
REMARK   13  A    between atoms: _28  and  _30
REMARK   14  A    between atoms: _30  and  _31
REMARK   15  A    between atoms: _30  and  _33
REMARK   16  A    between atoms: _33  and  _34
REMARK   17  A    between atoms: _37  and  _39
REMARK   18  A    between atoms: _39  and  _40
REMARK   19  A    between atoms: _39  and  _42
REMARK   20  A    between atoms: _42  and  _43
REMARK   21  A    between atoms: _46  and  _48
REMARK   22  A    between atoms: _48  and  _49
REMARK   23  A    between atoms: _52  and  _54
REMARK   24  A    between atoms: _54  and  _55
REMARK   25  A    between atoms: _54  and  _57
REMARK   26  A    between atoms: _57  and  _58
REMARK   27  A    between atoms: _63  and  _64
REMARK   28  A    between atoms: _66  and  _68
REMARK   29  A    between atoms: _68  and  _69
REMARK   30  A    between atoms: _68  and  _71
REMARK   31  A    between atoms: _71  and  _72
REMARK   32  A    between atoms: _75  and  _77
REMARK   33  A    between atoms: _77  and  _78
REMARK   34  A    between atoms: _77  and  _80
REMARK   35  A    between atoms: _80  and  _81
REMARK   36  A    between atoms: _87  and  _89
REMARK   37  A    between atoms: _89  and  _90
REMARK   38  A    between atoms: _89  and  _92
REMARK   39  A    between atoms: _92  and  _93
REMARK   40  A    between atoms: _96  and  _98
REMARK   41  A    between atoms: _98  and  _99
REMARK   42  A    between atoms: _98  and  _101
REMARK   43  A    between atoms: _101  and  _102
REMARK   44  A    between atoms: _105  and  _107
REMARK   45  A    between atoms: _107  and  _108
REMARK   46  A    between atoms: _110  and  _112
REMARK   47  A    between atoms: _112  and  _113
REMARK   48  A    between atoms: _112  and  _115
REMARK   49  A    between atoms: _115  and  _116
REMARK   50  A    between atoms: _118  and  _120
REMARK   51  A    between atoms: _120  and  _121
REMARK   52  A    between atoms: _120  and  _123
REMARK   53  A    between atoms: _123  and  _124
REMARK   54  A    between atoms: _126  and  _128
REMARK   55  A    between atoms: _128  and  _129
REMARK   56  A    between atoms: _128  and  _131
REMARK   57  A    between atoms: _131  and  _132
REMARK   58  A    between atoms: _135  and  _137
REMARK   59  A    between atoms: _137  and  _138
REMARK   60  A    between atoms: _137  and  _140
REMARK   61  A    between atoms: _140  and  _141
REMARK   62  A    between atoms: _151  and  _153
REMARK   63  A    between atoms: _153  and  _154
REMARK   64  A    between atoms: _153  and  _156
REMARK   65  A    between atoms: _156  and  _157
REMARK   66  A    between atoms: _159  and  _161
REMARK   67  A    between atoms: _161  and  _162
REMARK   68  A    between atoms: _161  and  _164
REMARK   69  A    between atoms: _164  and  _165
REMARK   70  A    between atoms: _168  and  _170
REMARK   71  A    between atoms: _170  and  _171
REMARK   72  A    between atoms: _170  and  _173
REMARK   73  A    between atoms: _173  and  _174
REMARK   74  A    between atoms: _176  and  _178
REMARK   75  A    between atoms: _178  and  _179
REMARK   76  A    between atoms: _178  and  _181
REMARK   77  A    between atoms: _181  and  _182
REMARK   78  A    between atoms: _187  and  _188
REMARK   79  A    between atoms: _190  and  _192
REMARK   80  A    between atoms: _192  and  _193
REMARK   81  A    between atoms: _195  and  _197
REMARK   82  A    between atoms: _197  and  _198
REMARK   83  A    between atoms: _197  and  _200
REMARK   84  A    between atoms: _200  and  _201
REMARK   85  A    between atoms: _204  and  _206
REMARK   86  A    between atoms: _206  and  _207
REMARK   87  A    between atoms: _209  and  _211
REMARK   88  A    between atoms: _211  and  _212
REMARK   89  A    between atoms: _211  and  _214
REMARK   90  A    between atoms: _214  and  _215
REMARK   91  A    between atoms: _217  and  _219
REMARK   92  A    between atoms: _219  and  _220
REMARK   93  A    between atoms: _219  and  _222
REMARK   94  A    between atoms: _222  and  _223
REMARK   95  A    between atoms: _225  and  _227
REMARK   96  A    between atoms: _227  and  _228
REMARK   97  A    between atoms: _227  and  _230
REMARK   98  A    between atoms: _230  and  _231
REMARK   99  A    between atoms: _233  and  _235
REMARK  100  A    between atoms: _235  and  _236
REMARK  101  A    between atoms: _235  and  _238
REMARK  102  A    between atoms: _238  and  _239
REMARK  103  A    between atoms: _245  and  _247
REMARK  104  A    between atoms: _247  and  _248
REMARK  105  A    between atoms: _247  and  _250
REMARK  106  A    between atoms: _250  and  _251
REMARK  107  A    between atoms: _254  and  _256
REMARK  108  A    between atoms: _256  and  _257
REMARK  109  A    between atoms: _256  and  _259
REMARK  110  A    between atoms: _259  and  _260
REMARK  111  A    between atoms: _263  and  _265
REMARK  112  A    between atoms: _265  and  _266
REMARK  113  A    between atoms: _265  and  _268
REMARK  114  A    between atoms: _268  and  _269
REMARK  115  A    between atoms: _272  and  _274
REMARK  116  A    between atoms: _274  and  _275
REMARK  117  A    between atoms: _277  and  _279
REMARK  118  A    between atoms: _279  and  _280
REMARK  119  A    between atoms: _279  and  _282
REMARK  120  A    between atoms: _282  and  _283
REMARK  121  A    between atoms: _286  and  _288
REMARK  122  A    between atoms: _288  and  _289
REMARK  123  A    between atoms: _288  and  _291
REMARK  124  A    between atoms: _291  and  _292
REMARK  125  A    between atoms: _295  and  _297
REMARK  126  A    between atoms: _297  and  _298
REMARK  127  A    between atoms: _300  and  _302
REMARK  128  A    between atoms: _302  and  _303
REMARK  129  A    between atoms: _302  and  _305
REMARK  130  A    between atoms: _305  and  _306
REMARK  131  A    between atoms: _309  and  _311
REMARK  132  A    between atoms: _311  and  _312
REMARK  133  A    between atoms: _315  and  _317
REMARK  134  A    between atoms: _317  and  _318
REMARK  135  A    between atoms: _317  and  _320
REMARK  136  A    between atoms: _320  and  _321
REMARK  137  A    between atoms: _327  and  _329
REMARK  138  A    between atoms: _329  and  _330
REMARK  139  A    between atoms: _329  and  _332
REMARK  140  A    between atoms: _332  and  _333
REMARK  141  A    between atoms: _336  and  _338
REMARK  142  A    between atoms: _338  and  _339
REMARK  143  A    between atoms: _338  and  _341
REMARK  144  A    between atoms: _341  and  _342
REMARK  145  A    between atoms: _345  and  _347
REMARK  146  A    between atoms: _347  and  _348
REMARK  147  A    between atoms: _347  and  _350
REMARK  148  A    between atoms: _350  and  _351
REMARK  149  A    between atoms: _356  and  _358
REMARK  150  A    between atoms: _358  and  _359
REMARK  151  A    between atoms: _358  and  _361
REMARK  152  A    between atoms: _361  and  _362
REMARK  153  A    between atoms: _365  and  _367
REMARK  154  A    between atoms: _367  and  _368
REMARK  155  A    between atoms: _367  and  _370
REMARK  156  A    between atoms: _370  and  _371
REMARK  157  A    between atoms: _371  and  _372
REMARK  158  A    between atoms: _377  and  _379
REMARK  159  A    between atoms: _379  and  _380
REMARK  160  A    between atoms: _382  and  _384
REMARK  161  A    between atoms: _384  and  _385
REMARK  162  A    between atoms: _384  and  _387
REMARK  163  A    between atoms: _387  and  _388
REMARK  164  A    between atoms: _394  and  _396
REMARK  165  A    between atoms: _396  and  _397
REMARK  166  A    between atoms: _396  and  _399
REMARK  167  A    between atoms: _399  and  _400
REMARK  168  A    between atoms: _403  and  _405
REMARK  169  A    between atoms: _405  and  _406
REMARK  170  A    between atoms: _409  and  _411
REMARK  171  A    between atoms: _411  and  _412
REMARK  172  A    between atoms: _411  and  _414
REMARK  173  A    between atoms: _414  and  _415
REMARK  174  A    between atoms: _418  and  _420
REMARK  175  A    between atoms: _420  and  _421
REMARK  176  A    between atoms: _420  and  _423
REMARK  177  A    between atoms: _423  and  _424
REMARK  178  A    between atoms: _427  and  _429
REMARK  179  A    between atoms: _429  and  _430
REMARK  180  A    between atoms: _432  and  _434
REMARK  181  A    between atoms: _434  and  _435
REMARK  182  A    between atoms: _434  and  _437
REMARK  183  A    between atoms: _437  and  _438
REMARK  184  A    between atoms: _441  and  _443
REMARK  185  A    between atoms: _443  and  _444
REMARK  186  A    between atoms: _443  and  _446
REMARK  187  A    between atoms: _446  and  _447
REMARK  188  A    between atoms: _450  and  _452
REMARK  189  A    between atoms: _452  and  _453
REMARK  190  A    between atoms: _452  and  _455
REMARK  191  A    between atoms: _455  and  _456
REMARK  192  A    between atoms: _459  and  _461
REMARK  193  A    between atoms: _461  and  _462
REMARK  194  A    between atoms: _461  and  _464
REMARK  195  A    between atoms: _464  and  _465
REMARK  196  A    between atoms: _470  and  _471
REMARK  197  A    between atoms: _473  and  _475
REMARK  198  A    between atoms: _475  and  _476
REMARK  199  A    between atoms: _478  and  _480
REMARK  200  A    between atoms: _480  and  _481
REMARK  201  A    between atoms: _480  and  _483
REMARK  202  A    between atoms: _483  and  _484
REMARK  203  A    between atoms: _490  and  _492
REMARK  204  A    between atoms: _492  and  _493
REMARK  205  A    between atoms: _492  and  _495
REMARK  206  A    between atoms: _495  and  _496
REMARK  207  A    between atoms: _502  and  _504
REMARK  208  A    between atoms: _504  and  _505
REMARK  209  A    between atoms: _507  and  _509
REMARK  210  A    between atoms: _509  and  _510
REMARK  211  A    between atoms: _512  and  _514
REMARK  212  A    between atoms: _514  and  _515
REMARK  213  A    between atoms: _514  and  _517
REMARK  214  A    between atoms: _517  and  _518
REMARK  215  A    between atoms: _518  and  _519
REMARK  216  A    between atoms: _524  and  _526
REMARK  217  A    between atoms: _526  and  _527
REMARK  218  A    between atoms: _529  and  _531
REMARK  219  A    between atoms: _531  and  _532
REMARK  220  A    between atoms: _531  and  _534
REMARK  221  A    between atoms: _534  and  _535
REMARK  222  A    between atoms: _538  and  _540
REMARK  223  A    between atoms: _540  and  _541
REMARK  224  A    between atoms: _543  and  _545
REMARK  225  A    between atoms: _545  and  _546
REMARK  226  A    between atoms: _545  and  _548
REMARK  227  A    between atoms: _548  and  _549
REMARK  228  A    between atoms: _552  and  _554
REMARK  229  A    between atoms: _554  and  _555
REMARK  230  A    between atoms: _554  and  _557
REMARK  231  A    between atoms: _557  and  _558
REMARK  232  A    between atoms: _563  and  _565
REMARK  233  A    between atoms: _565  and  _566
REMARK  234  A    between atoms: _565  and  _568
REMARK  235  A    between atoms: _568  and  _569
REMARK  236  A    between atoms: _572  and  _574
REMARK  237  A    between atoms: _574  and  _575
REMARK  238  A    between atoms: _577  and  _579
REMARK  239  A    between atoms: _579  and  _580
REMARK  240  A    between atoms: _579  and  _582
REMARK  241  A    between atoms: _582  and  _583
REMARK                            x       y       z     vdW  Elec       q    Type
REMARK                         _______ _______ _______ _____ _____    ______ ____
ROOT
ATOM      1  CA  ILE A   4      -5.962  32.492   7.882  0.00  0.00    +0.149 C 
ENDROOT
BRANCH   1   3
ATOM      2  C   GLY A   3      -7.851  33.611   9.050  0.00  0.00    +0.243 C 
ATOM      3  N   ILE A   4      -6.807  32.799   9.040  0.00  0.00    -0.297 N 
ATOM      4  H   ILE A   4      -6.563  32.335   9.938  0.00  0.00    +0.150 HD
ATOM      5  O   GLY A   3      -8.206  34.269   8.055  0.00  0.00    -0.273 OA
BRANCH   2   6
ATOM      6  CA  GLY A   3      -8.677  33.802  10.307  0.00  0.00    +0.176 C 
BRANCH   6   9
ATOM      7  C   ILE A   2      -7.244  33.524  12.239  0.00  0.00    +0.241 C 
ATOM      8  O   ILE A   2      -6.708  34.599  12.040  0.00  0.00    -0.273 OA
ATOM      9  N   GLY A   3      -8.157  33.042  11.403  0.00  0.00    -0.295 N 
ATOM     10  H   GLY A   3      -8.508  32.074  11.551  0.00  0.00    +0.150 HD
BRANCH   7  11
ATOM     11  CA  ILE A   2      -6.881  32.591  13.403  0.00  0.00    +0.148 C 
BRANCH  11  14
ATOM     12  C   GLY A   1      -8.842  32.249  14.924  0.00  0.00    +0.240 C 
ATOM     13  O   GLY A   1      -8.697  33.362  15.497  0.00  0.00    -0.274 OA
ATOM     14  N   ILE A   2      -8.010  31.857  13.970  0.00  0.00    -0.297 N 
ATOM     15  H   ILE A   2      -8.182  30.910  13.576  0.00  0.00    +0.150 HD
BRANCH  12  16
ATOM     16  CA  GLY A   1     -10.046  31.373  15.312  0.00  0.00    +0.169 C 
BRANCH  16  17
ATOM     17  N   GLY A   1     -10.411  30.330  14.344  0.00  0.00    -0.236 NA
ATOM     18  H   GLY A   1     -10.145  29.343  14.535  0.00  0.00    +0.142 HD
ENDBRANCH  16  17
ENDBRANCH  12  16
ENDBRANCH  11  14
BRANCH  11  19
ATOM     19  CB  ILE A   2      -5.833  31.673  12.718  0.00  0.00    +0.027 C 
ATOM     20  CG2 ILE A   2      -4.624  32.394  12.168  0.00  0.00    +0.002 C 
BRANCH  19  21
ATOM     21  CG1 ILE A   2      -5.390  30.487  13.566  0.00  0.00    +0.002 C 
ATOM     22  CD1 ILE A   2      -4.272  29.746  12.835  0.00  0.00    +0.000 C 
ENDBRANCH  19  21
ENDBRANCH  11  19
ENDBRANCH   7  11
ENDBRANCH   6   9
ENDBRANCH   2   6
ENDBRANCH   1   3
BRANCH   1  23
ATOM     23  C   ILE A   4      -5.518  31.023   7.968  0.00  0.00    +0.241 C 
ATOM     24  O   ILE A   4      -5.248  30.556   9.125  0.00  0.00    -0.273 OA
ATOM     25  N   ASN A   5      -5.452  30.291   6.829  0.00  0.00    -0.297 N 
ATOM     26  H   ASN A   5      -5.788  30.692   5.930  0.00  0.00    +0.150 HD
BRANCH  25  27
ATOM     27  CA  ASN A   5      -4.903  28.927   6.869  0.00  0.00    +0.158 C 
BRANCH  27  28
ATOM     28  C   ASN A   5      -3.337  28.979   6.939  0.00  0.00    +0.241 C 
ATOM     29  N   ILE A   6      -2.765  28.066   7.763  0.00  0.00    -0.298 N 
ATOM     30  H   ILE A   6      -3.352  27.335   8.213  0.00  0.00    +0.150 HD
ATOM     31  O   ASN A   5      -2.700  29.822   6.280  0.00  0.00    -0.273 OA
BRANCH  29  32
ATOM     32  CA  ILE A   6      -1.274  28.106   8.031  0.00  0.00    +0.137 C 
BRANCH  32  33
ATOM     33  C   ILE A   6      -0.679  26.711   7.817  0.00  0.00    +0.227 C 
ATOM     34  O   ILE A   6      -0.967  25.727   8.538  0.00  0.00    -0.286 OA
ENDBRANCH  32  33
BRANCH  32  35
ATOM     35  CB  ILE A   6      -0.909  28.622   9.445  0.00  0.00    +0.026 C 
ATOM     36  CG2 ILE A   6       0.647  28.650   9.582  0.00  0.00    +0.002 C 
BRANCH  35  37
ATOM     37  CG1 ILE A   6      -1.536  29.996   9.751  0.00  0.00    +0.002 C 
ATOM     38  CD1 ILE A   6      -1.112  30.642  11.044  0.00  0.00    +0.000 C 
ENDBRANCH  35  37
ENDBRANCH  32  35
ENDBRANCH  29  32
ENDBRANCH  27  28
BRANCH  27  39
ATOM     39  CB  ASN A   5      -5.395  28.108   5.648  0.00  0.00    +0.114 C 
BRANCH  39  40
ATOM     40  CG  ASN A   5      -6.944  28.070   5.589  0.00  0.00    +0.222 C 
ATOM     41  ND2 ASN A   5      -7.568  27.505   6.561  0.00  0.00    -0.329 N 
ATOM     42 HD21 ASN A   5      -7.038  27.150   7.383  0.00  0.00    +0.145 HD
ATOM     43 HD22 ASN A   5      -8.602  27.403   6.525  0.00  0.00    +0.145 HD
ATOM     44  OD1 ASN A   5      -7.529  28.547   4.513  0.00  0.00    -0.275 OA
ENDBRANCH  39  40
ENDBRANCH  27  39
ENDBRANCH  25  27
ENDBRANCH   1  23
BRANCH   1  45
ATOM     45  CB  ILE A   4      -4.729  33.422   7.721  0.00  0.00    +0.027 C 
ATOM     46  CG2 ILE A   4      -3.743  33.257   8.848  0.00  0.00    +0.002 C 
BRANCH  45  47
ATOM     47  CG1 ILE A   4      -3.979  33.290   6.378  0.00  0.00    +0.002 C 
ATOM     48  CD1 ILE A   4      -3.000  34.377   6.027  0.00  0.00    +0.000 C 
ENDBRANCH  45  47
ENDBRANCH   1  45
TORSDOF 20
REMARK  Name = ../refined-set-2016/1gvw/1gvw_pocket.pdb
REMARK  241 active torsions:
REMARK  status: ('A' for Active; 'I' for Inactive)
REMARK    1  A    between atoms: _1  and  _3
REMARK    2  A    between atoms: _3  and  _4
REMARK    3  A    between atoms: _3  and  _6
REMARK    4  A    between atoms: _6  and  _7
REMARK    5  A    between atoms: _10  and  _12
REMARK    6  A    between atoms: _12  and  _13
REMARK    7  A    between atoms: _12  and  _15
REMARK    8  A    between atoms: _15  and  _16
REMARK    9  A    between atoms: _19  and  _21
REMARK   10  A    between atoms: _21  and  _22
REMARK   11  A    between atoms: _21  and  _24
REMARK   12  A    between atoms: _24  and  _25
REMARK   13  A    between atoms: _28  and  _30
REMARK   14  A    between atoms: _30  and  _31
REMARK   15  A    between atoms: _30  and  _33
REMARK   16  A    between atoms: _33  and  _34
REMARK   17  A    between atoms: _37  and  _39
REMARK   18  A    between atoms: _39  and  _40
REMARK   19  A    between atoms: _39  and  _42
REMARK   20  A    between atoms: _42  and  _43
REMARK   21  A    between atoms: _46  and  _48
REMARK   22  A    between atoms: _48  and  _49
REMARK   23  A    between atoms: _52  and  _54
REMARK   24  A    between atoms: _54  and  _55
REMARK   25  A    between atoms: _54  and  _57
REMARK   26  A    between atoms: _57  and  _58
REMARK   27  A    between atoms: _63  and  _64
REMARK   28  A    between atoms: _66  and  _68
REMARK   29  A    between atoms: _68  and  _69
REMARK   30  A    between atoms: _68  and  _71
REMARK   31  A    between atoms: _71  and  _72
REMARK   32  A    between atoms: _75  and  _77
REMARK   33  A    between atoms: _77  and  _78
REMARK   34  A    between atoms: _77  and  _80
REMARK   35  A    between atoms: _80  and  _81
REMARK   36  A    between atoms: _87  and  _89
REMARK   37  A    between atoms: _89  and  _90
REMARK   38  A    between atoms: _89  and  _92
REMARK   39  A    between atoms: _92  and  _93
REMARK   40  A    between atoms: _96  and  _98
REMARK   41  A    between atoms: _98  and  _99
REMARK   42  A    between atoms: _98  and  _101
REMARK   43  A    between atoms: _101  and  _102
REMARK   44  A    between atoms: _105  and  _107
REMARK   45  A    between atoms: _107  and  _108
REMARK   46  A    between atoms: _110  and  _112
REMARK   47  A    between atoms: _112  and  _113
REMARK   48  A    between atoms: _112  and  _115
REMARK   49  A    between atoms: _115  and  _116
REMARK   50  A    between atoms: _118  and  _120
REMARK   51  A    between atoms: _120  and  _121
REMARK   52  A    between atoms: _120  and  _123
REMARK   53  A    between atoms: _123  and  _124
REMARK   54  A    between atoms: _126  and  _128
REMARK   55  A    between atoms: _128  and  _129
REMARK   56  A    between atoms: _128  and  _131
REMARK   57  A    between atoms: _131  and  _132
REMARK   58  A    between atoms: _135  and  _137
REMARK   59  A    between atoms: _137  and  _138
REMARK   60  A    between atoms: _137  and  _140
REMARK   61  A    between atoms: _140  and  _141
REMARK   62  A    between atoms: _151  and  _153
REMARK   63  A    between atoms: _153  and  _154
REMARK   64  A    between atoms: _153  and  _156
REMARK   65  A    between atoms: _156  and  _157
REMARK   66  A    between atoms: _159  and  _161
REMARK   67  A    between atoms: _161  and  _162
REMARK   68  A    between atoms: _161  and  _164
REMARK   69  A    between atoms: _164  and  _165
REMARK   70  A    between atoms: _168  and  _170
REMARK   71  A    between atoms: _170  and  _171
REMARK   72  A    between atoms: _170  and  _173
REMARK   73  A    between atoms: _173  and  _174
REMARK   74  A    between atoms: _176  and  _178
REMARK   75  A    between atoms: _178  and  _179
REMARK   76  A    between atoms: _178  and  _181
REMARK   77  A    between atoms: _181  and  _182
REMARK   78  A    between atoms: _187  and  _188
REMARK   79  A    between atoms: _190  and  _192
REMARK   80  A    between atoms: _192  and  _193
REMARK   81  A    between atoms: _195  and  _197
REMARK   82  A    between atoms: _197  and  _198
REMARK   83  A    between atoms: _197  and  _200
REMARK   84  A    between atoms: _200  and  _201
REMARK   85  A    between atoms: _204  and  _206
REMARK   86  A    between atoms: _206  and  _207
REMARK   87  A    between atoms: _209  and  _211
REMARK   88  A    between atoms: _211  and  _212
REMARK   89  A    between atoms: _211  and  _214
REMARK   90  A    between atoms: _214  and  _215
REMARK   91  A    between atoms: _217  and  _219
REMARK   92  A    between atoms: _219  and  _220
REMARK   93  A    between atoms: _219  and  _222
REMARK   94  A    between atoms: _222  and  _223
REMARK   95  A    between atoms: _225  and  _227
REMARK   96  A    between atoms: _227  and  _228
REMARK   97  A    between atoms: _227  and  _230
REMARK   98  A    between atoms: _230  and  _231
REMARK   99  A    between atoms: _233  and  _235
REMARK  100  A    between atoms: _235  and  _236
REMARK  101  A    between atoms: _235  and  _238
REMARK  102  A    between atoms: _238  and  _239
REMARK  103  A    between atoms: _245  and  _247
REMARK  104  A    between atoms: _247  and  _248
REMARK  105  A    between atoms: _247  and  _250
REMARK  106  A    between atoms: _250  and  _251
REMARK  107  A    between atoms: _254  and  _256
REMARK  108  A    between atoms: _256  and  _257
REMARK  109  A    between atoms: _256  and  _259
REMARK  110  A    between atoms: _259  and  _260
REMARK  111  A    between atoms: _263  and  _265
REMARK  112  A    between atoms: _265  and  _266
REMARK  113  A    between atoms: _265  and  _268
REMARK  114  A    between atoms: _268  and  _269
REMARK  115  A    between atoms: _272  and  _274
REMARK  116  A    between atoms: _274  and  _275
REMARK  117  A    between atoms: _277  and  _279
REMARK  118  A    between atoms: _279  and  _280
REMARK  119  A    between atoms: _279  and  _282
REMARK  120  A    between atoms: _282  and  _283
REMARK  121  A    between atoms: _286  and  _288
REMARK  122  A    between atoms: _288  and  _289
REMARK  123  A    between atoms: _288  and  _291
REMARK  124  A    between atoms: _291  and  _292
REMARK  125  A    between atoms: _295  and  _297
REMARK  126  A    between atoms: _297  and  _298
REMARK  127  A    between atoms: _300  and  _302
REMARK  128  A    between atoms: _302  and  _303
REMARK  129  A    between atoms: _302  and  _305
REMARK  130  A    between atoms: _305  and  _306
REMARK  131  A    between atoms: _309  and  _311
REMARK  132  A    between atoms: _311  and  _312
REMARK  133  A    between atoms: _315  and  _317
REMARK  134  A    between atoms: _317  and  _318
REMARK  135  A    between atoms: _317  and  _320
REMARK  136  A    between atoms: _320  and  _321
REMARK  137  A    between atoms: _327  and  _329
REMARK  138  A    between atoms: _329  and  _330
REMARK  139  A    between atoms: _329  and  _332
REMARK  140  A    between atoms: _332  and  _333
REMARK  141  A    between atoms: _336  and  _338
REMARK  142  A    between atoms: _338  and  _339
REMARK  143  A    between atoms: _338  and  _341
REMARK  144  A    between atoms: _341  and  _342
REMARK  145  A    between atoms: _345  and  _347
REMARK  146  A    between atoms: _347  and  _348
REMARK  147  A    between atoms: _347  and  _350
REMARK  148  A    between atoms: _350  and  _351
REMARK  149  A    between atoms: _356  and  _358
REMARK  150  A    between atoms: _358  and  _359
REMARK  151  A    between atoms: _358  and  _361
REMARK  152  A    between atoms: _361  and  _362
REMARK  153  A    between atoms: _365  and  _367
REMARK  154  A    between atoms: _367  and  _368
REMARK  155  A    between atoms: _367  and  _370
REMARK  156  A    between atoms: _370  and  _371
REMARK  157  A    between atoms: _371  and  _372
REMARK  158  A    between atoms: _377  and  _379
REMARK  159  A    between atoms: _379  and  _380
REMARK  160  A    between atoms: _382  and  _384
REMARK  161  A    between atoms: _384  and  _385
REMARK  162  A    between atoms: _384  and  _387
REMARK  163  A    between atoms: _387  and  _388
REMARK  164  A    between atoms: _394  and  _396
REMARK  165  A    between atoms: _396  and  _397
REMARK  166  A    between atoms: _396  and  _399
REMARK  167  A    between atoms: _399  and  _400
REMARK  168  A    between atoms: _403  and  _405
REMARK  169  A    between atoms: _405  and  _406
REMARK  170  A    between atoms: _409  and  _411
REMARK  171  A    between atoms: _411  and  _412
REMARK  172  A    between atoms: _411  and  _414
REMARK  173  A    between atoms: _414  and  _415
REMARK  174  A    between atoms: _418  and  _420
REMARK  175  A    between atoms: _420  and  _421
REMARK  176  A    between atoms: _420  and  _423
REMARK  177  A    between atoms: _423  and  _424
REMARK  178  A    between atoms: _427  and  _429
REMARK  179  A    between atoms: _429  and  _430
REMARK  180  A    between atoms: _432  and  _434
REMARK  181  A    between atoms: _434  and  _435
REMARK  182  A    between atoms: _434  and  _437
REMARK  183  A    between atoms: _437  and  _438
REMARK  184  A    between atoms: _441  and  _443
REMARK  185  A    between atoms: _443  and  _444
REMARK  186  A    between atoms: _443  and  _446
REMARK  187  A    between atoms: _446  and  _447
REMARK  188  A    between atoms: _450  and  _452
REMARK  189  A    between atoms: _452  and  _453
REMARK  190  A    between atoms: _452  and  _455
REMARK  191  A    between atoms: _455  and  _456
REMARK  192  A    between atoms: _459  and  _461
REMARK  193  A    between atoms: _461  and  _462
REMARK  194  A    between atoms: _461  and  _464
REMARK  195  A    between atoms: _464  and  _465
REMARK  196  A    between atoms: _470  and  _471
REMARK  197  A    between atoms: _473  and  _475
REMARK  198  A    between atoms: _475  and  _476
REMARK  199  A    between atoms: _478  and  _480
REMARK  200  A    between atoms: _480  and  _481
REMARK  201  A    between atoms: _480  and  _483
REMARK  202  A    between atoms: _483  and  _484
REMARK  203  A    between atoms: _490  and  _492
REMARK  204  A    between atoms: _492  and  _493
REMARK  205  A    between atoms: _492  and  _495
REMARK  206  A    between atoms: _495  and  _496
REMARK  207  A    between atoms: _502  and  _504
REMARK  208  A    between atoms: _504  and  _505
REMARK  209  A    between atoms: _507  and  _509
REMARK  210  A    between atoms: _509  and  _510
REMARK  211  A    between atoms: _512  and  _514
REMARK  212  A    between atoms: _514  and  _515
REMARK  213  A    between atoms: _514  and  _517
REMARK  214  A    between atoms: _517  and  _518
REMARK  215  A    between atoms: _518  and  _519
REMARK  216  A    between atoms: _524  and  _526
REMARK  217  A    between atoms: _526  and  _527
REMARK  218  A    between atoms: _529  and  _531
REMARK  219  A    between atoms: _531  and  _532
REMARK  220  A    between atoms: _531  and  _534
REMARK  221  A    between atoms: _534  and  _535
REMARK  222  A    between atoms: _538  and  _540
REMARK  223  A    between atoms: _540  and  _541
REMARK  224  A    between atoms: _543  and  _545
REMARK  225  A    between atoms: _545  and  _546
REMARK  226  A    between atoms: _545  and  _548
REMARK  227  A    between atoms: _548  and  _549
REMARK  228  A    between atoms: _552  and  _554
REMARK  229  A    between atoms: _554  and  _555
REMARK  230  A    between atoms: _554  and  _557
REMARK  231  A    between atoms: _557  and  _558
REMARK  232  A    between atoms: _563  and  _565
REMARK  233  A    between atoms: _565  and  _566
REMARK  234  A    between atoms: _565  and  _568
REMARK  235  A    between atoms: _568  and  _569
REMARK  236  A    between atoms: _572  and  _574
REMARK  237  A    between atoms: _574  and  _575
REMARK  238  A    between atoms: _577  and  _579
REMARK  239  A    between atoms: _579  and  _580
REMARK  240  A    between atoms: _579  and  _582
REMARK  241  A    between atoms: _582  and  _583
REMARK                            x       y       z     vdW  Elec       q    Type
REMARK                         _______ _______ _______ _____ _____    ______ ____
ROOT
ATOM      1  C   GLY A   1       4.123  23.942   9.682  0.00  0.00    +0.240 C 
ATOM      2  N   ASP A   2       4.915  23.723  10.766  0.00  0.00    -0.298 N 
ATOM      3  H   ASP A   2       4.768  24.288  11.627  0.00  0.00    +0.150 HD
ATOM      4  O   GLY A   1       4.105  23.149   8.692  0.00  0.00    -0.274 OA
ENDROOT
BRANCH   1   5
ATOM      5  CA  GLY A   1       3.258  25.198   9.721  0.00  0.00    +0.169 C 
BRANCH   5   6
ATOM      6  N   GLY A   1       2.140  25.155   8.730  0.00  0.00    -0.236 NA
ATOM      7  H   GLY A   1       1.204  24.815   9.031  0.00  0.00    +0.142 HD
ENDBRANCH   5   6
ENDBRANCH   1   5
BRANCH   2   8
ATOM      8  CA  ASP A   2       5.993  22.687  10.745  0.00  0.00    +0.148 C 
BRANCH   8   9
ATOM      9  C   ASP A   2       5.445  21.266  10.466  0.00  0.00    +0.227 C 
ATOM     10  O   ASP A   2       6.153  20.485   9.773  0.00  0.00    -0.286 OA
ENDBRANCH   8   9
BRANCH   8  11
ATOM     11  CB  ASP A   2       6.808  22.710  12.053  0.00  0.00    +0.142 C 
BRANCH  11  12
ATOM     12  CG  ASP A   2       7.553  23.988  12.379  0.00  0.00    +0.367 C 
ATOM     13  OD2 ASP A   2       7.827  24.294  13.557  0.00  0.00    -0.246 OA
ATOM     14  OD1 ASP A   2       7.876  24.751  11.333  0.00  0.00    -0.246 OA
ENDBRANCH  11  12
ENDBRANCH   8  11
ENDBRANCH   2   8
TORSDOF 6
REMARK  Name = ../refined-set-2016/1gvw/1gvw_pocket.pdb
REMARK  241 active torsions:
REMARK  status: ('A' for Active; 'I' for Inactive)
REMARK    1  A    between atoms: _1  and  _3
REMARK    2  A    between atoms: _3  and  _4
REMARK    3  A    between atoms: _3  and  _6
REMARK    4  A    between atoms: _6  and  _7
REMARK    5  A    between atoms: _10  and  _12
REMARK    6  A    between atoms: _12  and  _13
REMARK    7  A    between atoms: _12  and  _15
REMARK    8  A    between atoms: _15  and  _16
REMARK    9  A    between atoms: _19  and  _21
REMARK   10  A    between atoms: _21  and  _22
REMARK   11  A    between atoms: _21  and  _24
REMARK   12  A    between atoms: _24  and  _25
REMARK   13  A    between atoms: _28  and  _30
REMARK   14  A    between atoms: _30  and  _31
REMARK   15  A    between atoms: _30  and  _33
REMARK   16  A    between atoms: _33  and  _34
REMARK   17  A    between atoms: _37  and  _39
REMARK   18  A    between atoms: _39  and  _40
REMARK   19  A    between atoms: _39  and  _42
REMARK   20  A    between atoms: _42  and  _43
REMARK   21  A    between atoms: _46  and  _48
REMARK   22  A    between atoms: _48  and  _49
REMARK   23  A    between atoms: _52  and  _54
REMARK   24  A    between atoms: _54  and  _55
REMARK   25  A    between atoms: _54  and  _57
REMARK   26  A    between atoms: _57  and  _58
REMARK   27  A    between atoms: _63  and  _64
REMARK   28  A    between atoms: _66  and  _68
REMARK   29  A    between atoms: _68  and  _69
REMARK   30  A    between atoms: _68  and  _71
REMARK   31  A    between atoms: _71  and  _72
REMARK   32  A    between atoms: _75  and  _77
REMARK   33  A    between atoms: _77  and  _78
REMARK   34  A    between atoms: _77  and  _80
REMARK   35  A    between atoms: _80  and  _81
REMARK   36  A    between atoms: _87  and  _89
REMARK   37  A    between atoms: _89  and  _90
REMARK   38  A    between atoms: _89  and  _92
REMARK   39  A    between atoms: _92  and  _93
REMARK   40  A    between atoms: _96  and  _98
REMARK   41  A    between atoms: _98  and  _99
REMARK   42  A    between atoms: _98  and  _101
REMARK   43  A    between atoms: _101  and  _102
REMARK   44  A    between atoms: _105  and  _107
REMARK   45  A    between atoms: _107  and  _108
REMARK   46  A    between atoms: _110  and  _112
REMARK   47  A    between atoms: _112  and  _113
REMARK   48  A    between atoms: _112  and  _115
REMARK   49  A    between atoms: _115  and  _116
REMARK   50  A    between atoms: _118  and  _120
REMARK   51  A    between atoms: _120  and  _121
REMARK   52  A    between atoms: _120  and  _123
REMARK   53  A    between atoms: _123  and  _124
REMARK   54  A    between atoms: _126  and  _128
REMARK   55  A    between atoms: _128  and  _129
REMARK   56  A    between atoms: _128  and  _131
REMARK   57  A    between atoms: _131  and  _132
REMARK   58  A    between atoms: _135  and  _137
REMARK   59  A    between atoms: _137  and  _138
REMARK   60  A    between atoms: _137  and  _140
REMARK   61  A    between atoms: _140  and  _141
REMARK   62  A    between atoms: _151  and  _153
REMARK   63  A    between atoms: _153  and  _154
REMARK   64  A    between atoms: _153  and  _156
REMARK   65  A    between atoms: _156  and  _157
REMARK   66  A    between atoms: _159  and  _161
REMARK   67  A    between atoms: _161  and  _162
REMARK   68  A    between atoms: _161  and  _164
REMARK   69  A    between atoms: _164  and  _165
REMARK   70  A    between atoms: _168  and  _170
REMARK   71  A    between atoms: _170  and  _171
REMARK   72  A    between atoms: _170  and  _173
REMARK   73  A    between atoms: _173  and  _174
REMARK   74  A    between atoms: _176  and  _178
REMARK   75  A    between atoms: _178  and  _179
REMARK   76  A    between atoms: _178  and  _181
REMARK   77  A    between atoms: _181  and  _182
REMARK   78  A    between atoms: _187  and  _188
REMARK   79  A    between atoms: _190  and  _192
REMARK   80  A    between atoms: _192  and  _193
REMARK   81  A    between atoms: _195  and  _197
REMARK   82  A    between atoms: _197  and  _198
REMARK   83  A    between atoms: _197  and  _200
REMARK   84  A    between atoms: _200  and  _201
REMARK   85  A    between atoms: _204  and  _206
REMARK   86  A    between atoms: _206  and  _207
REMARK   87  A    between atoms: _209  and  _211
REMARK   88  A    between atoms: _211  and  _212
REMARK   89  A    between atoms: _211  and  _214
REMARK   90  A    between atoms: _214  and  _215
REMARK   91  A    between atoms: _217  and  _219
REMARK   92  A    between atoms: _219  and  _220
REMARK   93  A    between atoms: _219  and  _222
REMARK   94  A    between atoms: _222  and  _223
REMARK   95  A    between atoms: _225  and  _227
REMARK   96  A    between atoms: _227  and  _228
REMARK   97  A    between atoms: _227  and  _230
REMARK   98  A    between atoms: _230  and  _231
REMARK   99  A    between atoms: _233  and  _235
REMARK  100  A    between atoms: _235  and  _236
REMARK  101  A    between atoms: _235  and  _238
REMARK  102  A    between atoms: _238  and  _239
REMARK  103  A    between atoms: _245  and  _247
REMARK  104  A    between atoms: _247  and  _248
REMARK  105  A    between atoms: _247  and  _250
REMARK  106  A    between atoms: _250  and  _251
REMARK  107  A    between atoms: _254  and  _256
REMARK  108  A    between atoms: _256  and  _257
REMARK  109  A    between atoms: _256  and  _259
REMARK  110  A    between atoms: _259  and  _260
REMARK  111  A    between atoms: _263  and  _265
REMARK  112  A    between atoms: _265  and  _266
REMARK  113  A    between atoms: _265  and  _268
REMARK  114  A    between atoms: _268  and  _269
REMARK  115  A    between atoms: _272  and  _274
REMARK  116  A    between atoms: _274  and  _275
REMARK  117  A    between atoms: _277  and  _279
REMARK  118  A    between atoms: _279  and  _280
REMARK  119  A    between atoms: _279  and  _282
REMARK  120  A    between atoms: _282  and  _283
REMARK  121  A    between atoms: _286  and  _288
REMARK  122  A    between atoms: _288  and  _289
REMARK  123  A    between atoms: _288  and  _291
REMARK  124  A    between atoms: _291  and  _292
REMARK  125  A    between atoms: _295  and  _297
REMARK  126  A    between atoms: _297  and  _298
REMARK  127  A    between atoms: _300  and  _302
REMARK  128  A    between atoms: _302  and  _303
REMARK  129  A    between atoms: _302  and  _305
REMARK  130  A    between atoms: _305  and  _306
REMARK  131  A    between atoms: _309  and  _311
REMARK  132  A    between atoms: _311  and  _312
REMARK  133  A    between atoms: _315  and  _317
REMARK  134  A    between atoms: _317  and  _318
REMARK  135  A    between atoms: _317  and  _320
REMARK  136  A    between atoms: _320  and  _321
REMARK  137  A    between atoms: _327  and  _329
REMARK  138  A    between atoms: _329  and  _330
REMARK  139  A    between atoms: _329  and  _332
REMARK  140  A    between atoms: _332  and  _333
REMARK  141  A    between atoms: _336  and  _338
REMARK  142  A    between atoms: _338  and  _339
REMARK  143  A    between atoms: _338  and  _341
REMARK  144  A    between atoms: _341  and  _342
REMARK  145  A    between atoms: _345  and  _347
REMARK  146  A    between atoms: _347  and  _348
REMARK  147  A    between atoms: _347  and  _350
REMARK  148  A    between atoms: _350  and  _351
REMARK  149  A    between atoms: _356  and  _358
REMARK  150  A    between atoms: _358  and  _359
REMARK  151  A    between atoms: _358  and  _361
REMARK  152  A    between atoms: _361  and  _362
REMARK  153  A    between atoms: _365  and  _367
REMARK  154  A    between atoms: _367  and  _368
REMARK  155  A    between atoms: _367  and  _370
REMARK  156  A    between atoms: _370  and  _371
REMARK  157  A    between atoms: _371  and  _372
REMARK  158  A    between atoms: _377  and  _379
REMARK  159  A    between atoms: _379  and  _380
REMARK  160  A    between atoms: _382  and  _384
REMARK  161  A    between atoms: _384  and  _385
REMARK  162  A    between atoms: _384  and  _387
REMARK  163  A    between atoms: _387  and  _388
REMARK  164  A    between atoms: _394  and  _396
REMARK  165  A    between atoms: _396  and  _397
REMARK  166  A    between atoms: _396  and  _399
REMARK  167  A    between atoms: _399  and  _400
REMARK  168  A    between atoms: _403  and  _405
REMARK  169  A    between atoms: _405  and  _406
REMARK  170  A    between atoms: _409  and  _411
REMARK  171  A    between atoms: _411  and  _412
REMARK  172  A    between atoms: _411  and  _414
REMARK  173  A    between atoms: _414  and  _415
REMARK  174  A    between atoms: _418  and  _420
REMARK  175  A    between atoms: _420  and  _421
REMARK  176  A    between atoms: _420  and  _423
REMARK  177  A    between atoms: _423  and  _424
REMARK  178  A    between atoms: _427  and  _429
REMARK  179  A    between atoms: _429  and  _430
REMARK  180  A    between atoms: _432  and  _434
REMARK  181  A    between atoms: _434  and  _435
REMARK  182  A    between atoms: _434  and  _437
REMARK  183  A    between atoms: _437  and  _438
REMARK  184  A    between atoms: _441  and  _443
REMARK  185  A    between atoms: _443  and  _444
REMARK  186  A    between atoms: _443  and  _446
REMARK  187  A    between atoms: _446  and  _447
REMARK  188  A    between atoms: _450  and  _452
REMARK  189  A    between atoms: _452  and  _453
REMARK  190  A    between atoms: _452  and  _455
REMARK  191  A    between atoms: _455  and  _456
REMARK  192  A    between atoms: _459  and  _461
REMARK  193  A    between atoms: _461  and  _462
REMARK  194  A    between atoms: _461  and  _464
REMARK  195  A    between atoms: _464  and  _465
REMARK  196  A    between atoms: _470  and  _471
REMARK  197  A    between atoms: _473  and  _475
REMARK  198  A    between atoms: _475  and  _476
REMARK  199  A    between atoms: _478  and  _480
REMARK  200  A    between atoms: _480  and  _481
REMARK  201  A    between atoms: _480  and  _483
REMARK  202  A    between atoms: _483  and  _484
REMARK  203  A    between atoms: _490  and  _492
REMARK  204  A    between atoms: _492  and  _493
REMARK  205  A    between atoms: _492  and  _495
REMARK  206  A    between atoms: _495  and  _496
REMARK  207  A    between atoms: _502  and  _504
REMARK  208  A    between atoms: _504  and  _505
REMARK  209  A    between atoms: _507  and  _509
REMARK  210  A    between atoms: _509  and  _510
REMARK  211  A    between atoms: _512  and  _514
REMARK  212  A    between atoms: _514  and  _515
REMARK  213  A    between atoms: _514  and  _517
REMARK  214  A    between atoms: _517  and  _518
REMARK  215  A    between atoms: _518  and  _519
REMARK  216  A    between atoms: _524  and  _526
REMARK  217  A    between atoms: _526  and  _527
REMARK  218  A    between atoms: _529  and  _531
REMARK  219  A    between atoms: _531  and  _532
REMARK  220  A    between atoms: _531  and  _534
REMARK  221  A    between atoms: _534  and  _535
REMARK  222  A    between atoms: _538  and  _540
REMARK  223  A    between atoms: _540  and  _541
REMARK  224  A    between atoms: _543  and  _545
REMARK  225  A    between atoms: _545  and  _546
REMARK  226  A    between atoms: _545  and  _548
REMARK  227  A    between atoms: _548  and  _549
REMARK  228  A    between atoms: _552  and  _554
REMARK  229  A    between atoms: _554  and  _555
REMARK  230  A    between atoms: _554  and  _557
REMARK  231  A    between atoms: _557  and  _558
REMARK  232  A    between atoms: _563  and  _565
REMARK  233  A    between atoms: _565  and  _566
REMARK  234  A    between atoms: _565  and  _568
REMARK  235  A    between atoms: _568  and  _569
REMARK  236  A    between atoms: _572  and  _574
REMARK  237  A    between atoms: _574  and  _575
REMARK  238  A    between atoms: _577  and  _579
REMARK  239  A    between atoms: _579  and  _580
REMARK  240  A    between atoms: _579  and  _582
REMARK  241  A    between atoms: _582  and  _583
REMARK                            x       y       z     vdW  Elec       q    Type
REMARK                         _______ _______ _______ _____ _____    ______ ____
ROOT
ATOM      1  O   HOH     1      10.554  23.472  25.364  0.00  0.00    +0.000 OA
ENDROOT
TORSDOF 0
REMARK  Name = ../refined-set-2016/1gvw/1gvw_pocket.pdb
REMARK  241 active torsions:
REMARK  status: ('A' for Active; 'I' for Inactive)
REMARK    1  A    between atoms: _1  and  _3
REMARK    2  A    between atoms: _3  and  _4
REMARK    3  A    between atoms: _3  and  _6
REMARK    4  A    between atoms: _6  and  _7
REMARK    5  A    between atoms: _10  and  _12
REMARK    6  A    between atoms: _12  and  _13
REMARK    7  A    between atoms: _12  and  _15
REMARK    8  A    between atoms: _15  and  _16
REMARK    9  A    between atoms: _19  and  _21
REMARK   10  A    between atoms: _21  and  _22
REMARK   11  A    between atoms: _21  and  _24
REMARK   12  A    between atoms: _24  and  _25
REMARK   13  A    between atoms: _28  and  _30
REMARK   14  A    between atoms: _30  and  _31
REMARK   15  A    between atoms: _30  and  _33
REMARK   16  A    between atoms: _33  and  _34
REMARK   17  A    between atoms: _37  and  _39
REMARK   18  A    between atoms: _39  and  _40
REMARK   19  A    between atoms: _39  and  _42
REMARK   20  A    between atoms: _42  and  _43
REMARK   21  A    between atoms: _46  and  _48
REMARK   22  A    between atoms: _48  and  _49
REMARK   23  A    between atoms: _52  and  _54
REMARK   24  A    between atoms: _54  and  _55
REMARK   25  A    between atoms: _54  and  _57
REMARK   26  A    between atoms: _57  and  _58
REMARK   27  A    between atoms: _63  and  _64
REMARK   28  A    between atoms: _66  and  _68
REMARK   29  A    between atoms: _68  and  _69
REMARK   30  A    between atoms: _68  and  _71
REMARK   31  A    between atoms: _71  and  _72
REMARK   32  A    between atoms: _75  and  _77
REMARK   33  A    between atoms: _77  and  _78
REMARK   34  A    between atoms: _77  and  _80
REMARK   35  A    between atoms: _80  and  _81
REMARK   36  A    between atoms: _87  and  _89
REMARK   37  A    between atoms: _89  and  _90
REMARK   38  A    between atoms: _89  and  _92
REMARK   39  A    between atoms: _92  and  _93
REMARK   40  A    between atoms: _96  and  _98
REMARK   41  A    between atoms: _98  and  _99
REMARK   42  A    between atoms: _98  and  _101
REMARK   43  A    between atoms: _101  and  _102
REMARK   44  A    between atoms: _105  and  _107
REMARK   45  A    between atoms: _107  and  _108
REMARK   46  A    between atoms: _110  and  _112
REMARK   47  A    between atoms: _112  and  _113
REMARK   48  A    between atoms: _112  and  _115
REMARK   49  A    between atoms: _115  and  _116
REMARK   50  A    between atoms: _118  and  _120
REMARK   51  A    between atoms: _120  and  _121
REMARK   52  A    between atoms: _120  and  _123
REMARK   53  A    between atoms: _123  and  _124
REMARK   54  A    between atoms: _126  and  _128
REMARK   55  A    between atoms: _128  and  _129
REMARK   56  A    between atoms: _128  and  _131
REMARK   57  A    between atoms: _131  and  _132
REMARK   58  A    between atoms: _135  and  _137
REMARK   59  A    between atoms: _137  and  _138
REMARK   60  A    between atoms: _137  and  _140
REMARK   61  A    between atoms: _140  and  _141
REMARK   62  A    between atoms: _151  and  _153
REMARK   63  A    between atoms: _153  and  _154
REMARK   64  A    between atoms: _153  and  _156
REMARK   65  A    between atoms: _156  and  _157
REMARK   66  A    between atoms: _159  and  _161
REMARK   67  A    between atoms: _161  and  _162
REMARK   68  A    between atoms: _161  and  _164
REMARK   69  A    between atoms: _164  and  _165
REMARK   70  A    between atoms: _168  and  _170
REMARK   71  A    between atoms: _170  and  _171
REMARK   72  A    between atoms: _170  and  _173
REMARK   73  A    between atoms: _173  and  _174
REMARK   74  A    between atoms: _176  and  _178
REMARK   75  A    between atoms: _178  and  _179
REMARK   76  A    between atoms: _178  and  _181
REMARK   77  A    between atoms: _181  and  _182
REMARK   78  A    between atoms: _187  and  _188
REMARK   79  A    between atoms: _190  and  _192
REMARK   80  A    between atoms: _192  and  _193
REMARK   81  A    between atoms: _195  and  _197
REMARK   82  A    between atoms: _197  and  _198
REMARK   83  A    between atoms: _197  and  _200
REMARK   84  A    between atoms: _200  and  _201
REMARK   85  A    between atoms: _204  and  _206
REMARK   86  A    between atoms: _206  and  _207
REMARK   87  A    between atoms: _209  and  _211
REMARK   88  A    between atoms: _211  and  _212
REMARK   89  A    between atoms: _211  and  _214
REMARK   90  A    between atoms: _214  and  _215
REMARK   91  A    between atoms: _217  and  _219
REMARK   92  A    between atoms: _219  and  _220
REMARK   93  A    between atoms: _219  and  _222
REMARK   94  A    between atoms: _222  and  _223
REMARK   95  A    between atoms: _225  and  _227
REMARK   96  A    between atoms: _227  and  _228
REMARK   97  A    between atoms: _227  and  _230
REMARK   98  A    between atoms: _230  and  _231
REMARK   99  A    between atoms: _233  and  _235
REMARK  100  A    between atoms: _235  and  _236
REMARK  101  A    between atoms: _235  and  _238
REMARK  102  A    between atoms: _238  and  _239
REMARK  103  A    between atoms: _245  and  _247
REMARK  104  A    between atoms: _247  and  _248
REMARK  105  A    between atoms: _247  and  _250
REMARK  106  A    between atoms: _250  and  _251
REMARK  107  A    between atoms: _254  and  _256
REMARK  108  A    between atoms: _256  and  _257
REMARK  109  A    between atoms: _256  and  _259
REMARK  110  A    between atoms: _259  and  _260
REMARK  111  A    between atoms: _263  and  _265
REMARK  112  A    between atoms: _265  and  _266
REMARK  113  A    between atoms: _265  and  _268
REMARK  114  A    between atoms: _268  and  _269
REMARK  115  A    between atoms: _272  and  _274
REMARK  116  A    between atoms: _274  and  _275
REMARK  117  A    between atoms: _277  and  _279
REMARK  118  A    between atoms: _279  and  _280
REMARK  119  A    between atoms: _279  and  _282
REMARK  120  A    between atoms: _282  and  _283
REMARK  121  A    between atoms: _286  and  _288
REMARK  122  A    between atoms: _288  and  _289
REMARK  123  A    between atoms: _288  and  _291
REMARK  124  A    between atoms: _291  and  _292
REMARK  125  A    between atoms: _295  and  _297
REMARK  126  A    between atoms: _297  and  _298
REMARK  127  A    between atoms: _300  and  _302
REMARK  128  A    between atoms: _302  and  _303
REMARK  129  A    between atoms: _302  and  _305
REMARK  130  A    between atoms: _305  and  _306
REMARK  131  A    between atoms: _309  and  _311
REMARK  132  A    between atoms: _311  and  _312
REMARK  133  A    between atoms: _315  and  _317
REMARK  134  A    between atoms: _317  and  _318
REMARK  135  A    between atoms: _317  and  _320
REMARK  136  A    between atoms: _320  and  _321
REMARK  137  A    between atoms: _327  and  _329
REMARK  138  A    between atoms: _329  and  _330
REMARK  139  A    between atoms: _329  and  _332
REMARK  140  A    between atoms: _332  and  _333
REMARK  141  A    between atoms: _336  and  _338
REMARK  142  A    between atoms: _338  and  _339
REMARK  143  A    between atoms: _338  and  _341
REMARK  144  A    between atoms: _341  and  _342
REMARK  145  A    between atoms: _345  and  _347
REMARK  146  A    between atoms: _347  and  _348
REMARK  147  A    between atoms: _347  and  _350
REMARK  148  A    between atoms: _350  and  _351
REMARK  149  A    between atoms: _356  and  _358
REMARK  150  A    between atoms: _358  and  _359
REMARK  151  A    between atoms: _358  and  _361
REMARK  152  A    between atoms: _361  and  _362
REMARK  153  A    between atoms: _365  and  _367
REMARK  154  A    between atoms: _367  and  _368
REMARK  155  A    between atoms: _367  and  _370
REMARK  156  A    between atoms: _370  and  _371
REMARK  157  A    between atoms: _371  and  _372
REMARK  158  A    between atoms: _377  and  _379
REMARK  159  A    between atoms: _379  and  _380
REMARK  160  A    between atoms: _382  and  _384
REMARK  161  A    between atoms: _384  and  _385
REMARK  162  A    between atoms: _384  and  _387
REMARK  163  A    between atoms: _387  and  _388
REMARK  164  A    between atoms: _394  and  _396
REMARK  165  A    between atoms: _396  and  _397
REMARK  166  A    between atoms: _396  and  _399
REMARK  167  A    between atoms: _399  and  _400
REMARK  168  A    between atoms: _403  and  _405
REMARK  169  A    between atoms: _405  and  _406
REMARK  170  A    between atoms: _409  and  _411
REMARK  171  A    between atoms: _411  and  _412
REMARK  172  A    between atoms: _411  and  _414
REMARK  173  A    between atoms: _414  and  _415
REMARK  174  A    between atoms: _418  and  _420
REMARK  175  A    between atoms: _420  and  _421
REMARK  176  A    between atoms: _420  and  _423
REMARK  177  A    between atoms: _423  and  _424
REMARK  178  A    between atoms: _427  and  _429
REMARK  179  A    between atoms: _429  and  _430
REMARK  180  A    between atoms: _432  and  _434
REMARK  181  A    between atoms: _434  and  _435
REMARK  182  A    between atoms: _434  and  _437
REMARK  183  A    between atoms: _437  and  _438
REMARK  184  A    between atoms: _441  and  _443
REMARK  185  A    between atoms: _443  and  _444
REMARK  186  A    between atoms: _443  and  _446
REMARK  187  A    between atoms: _446  and  _447
REMARK  188  A    between atoms: _450  and  _452
REMARK  189  A    between atoms: _452  and  _453
REMARK  190  A    between atoms: _452  and  _455
REMARK  191  A    between atoms: _455  and  _456
REMARK  192  A    between atoms: _459  and  _461
REMARK  193  A    between atoms: _461  and  _462
REMARK  194  A    between atoms: _461  and  _464
REMARK  195  A    between atoms: _464  and  _465
REMARK  196  A    between atoms: _470  and  _471
REMARK  197  A    between atoms: _473  and  _475
REMARK  198  A    between atoms: _475  and  _476
REMARK  199  A    between atoms: _478  and  _480
REMARK  200  A    between atoms: _480  and  _481
REMARK  201  A    between atoms: _480  and  _483
REMARK  202  A    between atoms: _483  and  _484
REMARK  203  A    between atoms: _490  and  _492
REMARK  204  A    between atoms: _492  and  _493
REMARK  205  A    between atoms: _492  and  _495
REMARK  206  A    between atoms: _495  and  _496
REMARK  207  A    between atoms: _502  and  _504
REMARK  208  A    between atoms: _504  and  _505
REMARK  209  A    between atoms: _507  and  _509
REMARK  210  A    between atoms: _509  and  _510
REMARK  211  A    between atoms: _512  and  _514
REMARK  212  A    between atoms: _514  and  _515
REMARK  213  A    between atoms: _514  and  _517
REMARK  214  A    between atoms: _517  and  _518
REMARK  215  A    between atoms: _518  and  _519
REMARK  216  A    between atoms: _524  and  _526
REMARK  217  A    between atoms: _526  and  _527
REMARK  218  A    between atoms: _529  and  _531
REMARK  219  A    between atoms: _531  and  _532
REMARK  220  A    between atoms: _531  and  _534
REMARK  221  A    between atoms: _534  and  _535
REMARK  222  A    between atoms: _538  and  _540
REMARK  223  A    between atoms: _540  and  _541
REMARK  224  A    between atoms: _543  and  _545
REMARK  225  A    between atoms: _545  and  _546
REMARK  226  A    between atoms: _545  and  _548
REMARK  227  A    between atoms: _548  and  _549
REMARK  228  A    between atoms: _552  and  _554
REMARK  229  A    between atoms: _554  and  _555
REMARK  230  A    between atoms: _554  and  _557
REMARK  231  A    between atoms: _557  and  _558
REMARK  232  A    between atoms: _563  and  _565
REMARK  233  A    between atoms: _565  and  _566
REMARK  234  A    between atoms: _565  and  _568
REMARK  235  A    between atoms: _568  and  _569
REMARK  236  A    between atoms: _572  and  _574
REMARK  237  A    between atoms: _574  and  _575
REMARK  238  A    between atoms: _577  and  _579
REMARK  239  A    between atoms: _579  and  _580
REMARK  240  A    between atoms: _579  and  _582
REMARK  241  A    between atoms: _582  and  _583
REMARK                            x       y       z     vdW  Elec       q    Type
REMARK                         _______ _______ _______ _____ _____    ______ ____
ROOT
ATOM      1  O   HOH     1       3.962  46.928  13.920  0.00  0.00    +0.000 OA
ENDROOT
TORSDOF 0
REMARK  Name = ../refined-set-2016/1gvw/1gvw_pocket.pdb
REMARK  241 active torsions:
REMARK  status: ('A' for Active; 'I' for Inactive)
REMARK    1  A    between atoms: _1  and  _3
REMARK    2  A    between atoms: _3  and  _4
REMARK    3  A    between atoms: _3  and  _6
REMARK    4  A    between atoms: _6  and  _7
REMARK    5  A    between atoms: _10  and  _12
REMARK    6  A    between atoms: _12  and  _13
REMARK    7  A    between atoms: _12  and  _15
REMARK    8  A    between atoms: _15  and  _16
REMARK    9  A    between atoms: _19  and  _21
REMARK   10  A    between atoms: _21  and  _22
REMARK   11  A    between atoms: _21  and  _24
REMARK   12  A    between atoms: _24  and  _25
REMARK   13  A    between atoms: _28  and  _30
REMARK   14  A    between atoms: _30  and  _31
REMARK   15  A    between atoms: _30  and  _33
REMARK   16  A    between atoms: _33  and  _34
REMARK   17  A    between atoms: _37  and  _39
REMARK   18  A    between atoms: _39  and  _40
REMARK   19  A    between atoms: _39  and  _42
REMARK   20  A    between atoms: _42  and  _43
REMARK   21  A    between atoms: _46  and  _48
REMARK   22  A    between atoms: _48  and  _49
REMARK   23  A    between atoms: _52  and  _54
REMARK   24  A    between atoms: _54  and  _55
REMARK   25  A    between atoms: _54  and  _57
REMARK   26  A    between atoms: _57  and  _58
REMARK   27  A    between atoms: _63  and  _64
REMARK   28  A    between atoms: _66  and  _68
REMARK   29  A    between atoms: _68  and  _69
REMARK   30  A    between atoms: _68  and  _71
REMARK   31  A    between atoms: _71  and  _72
REMARK   32  A    between atoms: _75  and  _77
REMARK   33  A    between atoms: _77  and  _78
REMARK   34  A    between atoms: _77  and  _80
REMARK   35  A    between atoms: _80  and  _81
REMARK   36  A    between atoms: _87  and  _89
REMARK   37  A    between atoms: _89  and  _90
REMARK   38  A    between atoms: _89  and  _92
REMARK   39  A    between atoms: _92  and  _93
REMARK   40  A    between atoms: _96  and  _98
REMARK   41  A    between atoms: _98  and  _99
REMARK   42  A    between atoms: _98  and  _101
REMARK   43  A    between atoms: _101  and  _102
REMARK   44  A    between atoms: _105  and  _107
REMARK   45  A    between atoms: _107  and  _108
REMARK   46  A    between atoms: _110  and  _112
REMARK   47  A    between atoms: _112  and  _113
REMARK   48  A    between atoms: _112  and  _115
REMARK   49  A    between atoms: _115  and  _116
REMARK   50  A    between atoms: _118  and  _120
REMARK   51  A    between atoms: _120  and  _121
REMARK   52  A    between atoms: _120  and  _123
REMARK   53  A    between atoms: _123  and  _124
REMARK   54  A    between atoms: _126  and  _128
REMARK   55  A    between atoms: _128  and  _129
REMARK   56  A    between atoms: _128  and  _131
REMARK   57  A    between atoms: _131  and  _132
REMARK   58  A    between atoms: _135  and  _137
REMARK   59  A    between atoms: _137  and  _138
REMARK   60  A    between atoms: _137  and  _140
REMARK   61  A    between atoms: _140  and  _141
REMARK   62  A    between atoms: _151  and  _153
REMARK   63  A    between atoms: _153  and  _154
REMARK   64  A    between atoms: _153  and  _156
REMARK   65  A    between atoms: _156  and  _157
REMARK   66  A    between atoms: _159  and  _161
REMARK   67  A    between atoms: _161  and  _162
REMARK   68  A    between atoms: _161  and  _164
REMARK   69  A    between atoms: _164  and  _165
REMARK   70  A    between atoms: _168  and  _170
REMARK   71  A    between atoms: _170  and  _171
REMARK   72  A    between atoms: _170  and  _173
REMARK   73  A    between atoms: _173  and  _174
REMARK   74  A    between atoms: _176  and  _178
REMARK   75  A    between atoms: _178  and  _179
REMARK   76  A    between atoms: _178  and  _181
REMARK   77  A    between atoms: _181  and  _182
REMARK   78  A    between atoms: _187  and  _188
REMARK   79  A    between atoms: _190  and  _192
REMARK   80  A    between atoms: _192  and  _193
REMARK   81  A    between atoms: _195  and  _197
REMARK   82  A    between atoms: _197  and  _198
REMARK   83  A    between atoms: _197  and  _200
REMARK   84  A    between atoms: _200  and  _201
REMARK   85  A    between atoms: _204  and  _206
REMARK   86  A    between atoms: _206  and  _207
REMARK   87  A    between atoms: _209  and  _211
REMARK   88  A    between atoms: _211  and  _212
REMARK   89  A    between atoms: _211  and  _214
REMARK   90  A    between atoms: _214  and  _215
REMARK   91  A    between atoms: _217  and  _219
REMARK   92  A    between atoms: _219  and  _220
REMARK   93  A    between atoms: _219  and  _222
REMARK   94  A    between atoms: _222  and  _223
REMARK   95  A    between atoms: _225  and  _227
REMARK   96  A    between atoms: _227  and  _228
REMARK   97  A    between atoms: _227  and  _230
REMARK   98  A    between atoms: _230  and  _231
REMARK   99  A    between atoms: _233  and  _235
REMARK  100  A    between atoms: _235  and  _236
REMARK  101  A    between atoms: _235  and  _238
REMARK  102  A    between atoms: _238  and  _239
REMARK  103  A    between atoms: _245  and  _247
REMARK  104  A    between atoms: _247  and  _248
REMARK  105  A    between atoms: _247  and  _250
REMARK  106  A    between atoms: _250  and  _251
REMARK  107  A    between atoms: _254  and  _256
REMARK  108  A    between atoms: _256  and  _257
REMARK  109  A    between atoms: _256  and  _259
REMARK  110  A    between atoms: _259  and  _260
REMARK  111  A    between atoms: _263  and  _265
REMARK  112  A    between atoms: _265  and  _266
REMARK  113  A    between atoms: _265  and  _268
REMARK  114  A    between atoms: _268  and  _269
REMARK  115  A    between atoms: _272  and  _274
REMARK  116  A    between atoms: _274  and  _275
REMARK  117  A    between atoms: _277  and  _279
REMARK  118  A    between atoms: _279  and  _280
REMARK  119  A    between atoms: _279  and  _282
REMARK  120  A    between atoms: _282  and  _283
REMARK  121  A    between atoms: _286  and  _288
REMARK  122  A    between atoms: _288  and  _289
REMARK  123  A    between atoms: _288  and  _291
REMARK  124  A    between atoms: _291  and  _292
REMARK  125  A    between atoms: _295  and  _297
REMARK  126  A    between atoms: _297  and  _298
REMARK  127  A    between atoms: _300  and  _302
REMARK  128  A    between atoms: _302  and  _303
REMARK  129  A    between atoms: _302  and  _305
REMARK  130  A    between atoms: _305  and  _306
REMARK  131  A    between atoms: _309  and  _311
REMARK  132  A    between atoms: _311  and  _312
REMARK  133  A    between atoms: _315  and  _317
REMARK  134  A    between atoms: _317  and  _318
REMARK  135  A    between atoms: _317  and  _320
REMARK  136  A    between atoms: _320  and  _321
REMARK  137  A    between atoms: _327  and  _329
REMARK  138  A    between atoms: _329  and  _330
REMARK  139  A    between atoms: _329  and  _332
REMARK  140  A    between atoms: _332  and  _333
REMARK  141  A    between atoms: _336  and  _338
REMARK  142  A    between atoms: _338  and  _339
REMARK  143  A    between atoms: _338  and  _341
REMARK  144  A    between atoms: _341  and  _342
REMARK  145  A    between atoms: _345  and  _347
REMARK  146  A    between atoms: _347  and  _348
REMARK  147  A    between atoms: _347  and  _350
REMARK  148  A    between atoms: _350  and  _351
REMARK  149  A    between atoms: _356  and  _358
REMARK  150  A    between atoms: _358  and  _359
REMARK  151  A    between atoms: _358  and  _361
REMARK  152  A    between atoms: _361  and  _362
REMARK  153  A    between atoms: _365  and  _367
REMARK  154  A    between atoms: _367  and  _368
REMARK  155  A    between atoms: _367  and  _370
REMARK  156  A    between atoms: _370  and  _371
REMARK  157  A    between atoms: _371  and  _372
REMARK  158  A    between atoms: _377  and  _379
REMARK  159  A    between atoms: _379  and  _380
REMARK  160  A    between atoms: _382  and  _384
REMARK  161  A    between atoms: _384  and  _385
REMARK  162  A    between atoms: _384  and  _387
REMARK  163  A    between atoms: _387  and  _388
REMARK  164  A    between atoms: _394  and  _396
REMARK  165  A    between atoms: _396  and  _397
REMARK  166  A    between atoms: _396  and  _399
REMARK  167  A    between atoms: _399  and  _400
REMARK  168  A    between atoms: _403  and  _405
REMARK  169  A    between atoms: _405  and  _406
REMARK  170  A    between atoms: _409  and  _411
REMARK  171  A    between atoms: _411  and  _412
REMARK  172  A    between atoms: _411  and  _414
REMARK  173  A    between atoms: _414  and  _415
REMARK  174  A    between atoms: _418  and  _420
REMARK  175  A    between atoms: _420  and  _421
REMARK  176  A    between atoms: _420  and  _423
REMARK  177  A    between atoms: _423  and  _424
REMARK  178  A    between atoms: _427  and  _429
REMARK  179  A    between atoms: _429  and  _430
REMARK  180  A    between atoms: _432  and  _434
REMARK  181  A    between atoms: _434  and  _435
REMARK  182  A    between atoms: _434  and  _437
REMARK  183  A    between atoms: _437  and  _438
REMARK  184  A    between atoms: _441  and  _443
REMARK  185  A    between atoms: _443  and  _444
REMARK  186  A    between atoms: _443  and  _446
REMARK  187  A    between atoms: _446  and  _447
REMARK  188  A    between atoms: _450  and  _452
REMARK  189  A    between atoms: _452  and  _453
REMARK  190  A    between atoms: _452  and  _455
REMARK  191  A    between atoms: _455  and  _456
REMARK  192  A    between atoms: _459  and  _461
REMARK  193  A    between atoms: _461  and  _462
REMARK  194  A    between atoms: _461  and  _464
REMARK  195  A    between atoms: _464  and  _465
REMARK  196  A    between atoms: _470  and  _471
REMARK  197  A    between atoms: _473  and  _475
REMARK  198  A    between atoms: _475  and  _476
REMARK  199  A    between atoms: _478  and  _480
REMARK  200  A    between atoms: _480  and  _481
REMARK  201  A    between atoms: _480  and  _483
REMARK  202  A    between atoms: _483  and  _484
REMARK  203  A    between atoms: _490  and  _492
REMARK  204  A    between atoms: _492  and  _493
REMARK  205  A    between atoms: _492  and  _495
REMARK  206  A    between atoms: _495  and  _496
REMARK  207  A    between atoms: _502  and  _504
REMARK  208  A    between atoms: _504  and  _505
REMARK  209  A    between atoms: _507  and  _509
REMARK  210  A    between atoms: _509  and  _510
REMARK  211  A    between atoms: _512  and  _514
REMARK  212  A    between atoms: _514  and  _515
REMARK  213  A    between atoms: _514  and  _517
REMARK  214  A    between atoms: _517  and  _518
REMARK  215  A    between atoms: _518  and  _519
REMARK  216  A    between atoms: _524  and  _526
REMARK  217  A    between atoms: _526  and  _527
REMARK  218  A    between atoms: _529  and  _531
REMARK  219  A    between atoms: _531  and  _532
REMARK  220  A    between atoms: _531  and  _534
REMARK  221  A    between atoms: _534  and  _535
REMARK  222  A    between atoms: _538  and  _540
REMARK  223  A    between atoms: _540  and  _541
REMARK  224  A    between atoms: _543  and  _545
REMARK  225  A    between atoms: _545  and  _546
REMARK  226  A    between atoms: _545  and  _548
REMARK  227  A    between atoms: _548  and  _549
REMARK  228  A    between atoms: _552  and  _554
REMARK  229  A    between atoms: _554  and  _555
REMARK  230  A    between atoms: _554  and  _557
REMARK  231  A    between atoms: _557  and  _558
REMARK  232  A    between atoms: _563  and  _565
REMARK  233  A    between atoms: _565  and  _566
REMARK  234  A    between atoms: _565  and  _568
REMARK  235  A    between atoms: _568  and  _569
REMARK  236  A    between atoms: _572  and  _574
REMARK  237  A    between atoms: _574  and  _575
REMARK  238  A    between atoms: _577  and  _579
REMARK  239  A    between atoms: _579  and  _580
REMARK  240  A    between atoms: _579  and  _582
REMARK  241  A    between atoms: _582  and  _583
REMARK                            x       y       z     vdW  Elec       q    Type
REMARK                         _______ _______ _______ _____ _____    ______ ____
ROOT
ATOM      1  O   HOH     1       8.539  28.819  16.217  0.00  0.00    +0.000 OA
ENDROOT
TORSDOF 0
REMARK  Name = ../refined-set-2016/1gvw/1gvw_pocket.pdb
REMARK  241 active torsions:
REMARK  status: ('A' for Active; 'I' for Inactive)
REMARK    1  A    between atoms: _1  and  _3
REMARK    2  A    between atoms: _3  and  _4
REMARK    3  A    between atoms: _3  and  _6
REMARK    4  A    between atoms: _6  and  _7
REMARK    5  A    between atoms: _10  and  _12
REMARK    6  A    between atoms: _12  and  _13
REMARK    7  A    between atoms: _12  and  _15
REMARK    8  A    between atoms: _15  and  _16
REMARK    9  A    between atoms: _19  and  _21
REMARK   10  A    between atoms: _21  and  _22
REMARK   11  A    between atoms: _21  and  _24
REMARK   12  A    between atoms: _24  and  _25
REMARK   13  A    between atoms: _28  and  _30
REMARK   14  A    between atoms: _30  and  _31
REMARK   15  A    between atoms: _30  and  _33
REMARK   16  A    between atoms: _33  and  _34
REMARK   17  A    between atoms: _37  and  _39
REMARK   18  A    between atoms: _39  and  _40
REMARK   19  A    between atoms: _39  and  _42
REMARK   20  A    between atoms: _42  and  _43
REMARK   21  A    between atoms: _46  and  _48
REMARK   22  A    between atoms: _48  and  _49
REMARK   23  A    between atoms: _52  and  _54
REMARK   24  A    between atoms: _54  and  _55
REMARK   25  A    between atoms: _54  and  _57
REMARK   26  A    between atoms: _57  and  _58
REMARK   27  A    between atoms: _63  and  _64
REMARK   28  A    between atoms: _66  and  _68
REMARK   29  A    between atoms: _68  and  _69
REMARK   30  A    between atoms: _68  and  _71
REMARK   31  A    between atoms: _71  and  _72
REMARK   32  A    between atoms: _75  and  _77
REMARK   33  A    between atoms: _77  and  _78
REMARK   34  A    between atoms: _77  and  _80
REMARK   35  A    between atoms: _80  and  _81
REMARK   36  A    between atoms: _87  and  _89
REMARK   37  A    between atoms: _89  and  _90
REMARK   38  A    between atoms: _89  and  _92
REMARK   39  A    between atoms: _92  and  _93
REMARK   40  A    between atoms: _96  and  _98
REMARK   41  A    between atoms: _98  and  _99
REMARK   42  A    between atoms: _98  and  _101
REMARK   43  A    between atoms: _101  and  _102
REMARK   44  A    between atoms: _105  and  _107
REMARK   45  A    between atoms: _107  and  _108
REMARK   46  A    between atoms: _110  and  _112
REMARK   47  A    between atoms: _112  and  _113
REMARK   48  A    between atoms: _112  and  _115
REMARK   49  A    between atoms: _115  and  _116
REMARK   50  A    between atoms: _118  and  _120
REMARK   51  A    between atoms: _120  and  _121
REMARK   52  A    between atoms: _120  and  _123
REMARK   53  A    between atoms: _123  and  _124
REMARK   54  A    between atoms: _126  and  _128
REMARK   55  A    between atoms: _128  and  _129
REMARK   56  A    between atoms: _128  and  _131
REMARK   57  A    between atoms: _131  and  _132
REMARK   58  A    between atoms: _135  and  _137
REMARK   59  A    between atoms: _137  and  _138
REMARK   60  A    between atoms: _137  and  _140
REMARK   61  A    between atoms: _140  and  _141
REMARK   62  A    between atoms: _151  and  _153
REMARK   63  A    between atoms: _153  and  _154
REMARK   64  A    between atoms: _153  and  _156
REMARK   65  A    between atoms: _156  and  _157
REMARK   66  A    between atoms: _159  and  _161
REMARK   67  A    between atoms: _161  and  _162
REMARK   68  A    between atoms: _161  and  _164
REMARK   69  A    between atoms: _164  and  _165
REMARK   70  A    between atoms: _168  and  _170
REMARK   71  A    between atoms: _170  and  _171
REMARK   72  A    between atoms: _170  and  _173
REMARK   73  A    between atoms: _173  and  _174
REMARK   74  A    between atoms: _176  and  _178
REMARK   75  A    between atoms: _178  and  _179
REMARK   76  A    between atoms: _178  and  _181
REMARK   77  A    between atoms: _181  and  _182
REMARK   78  A    between atoms: _187  and  _188
REMARK   79  A    between atoms: _190  and  _192
REMARK   80  A    between atoms: _192  and  _193
REMARK   81  A    between atoms: _195  and  _197
REMARK   82  A    between atoms: _197  and  _198
REMARK   83  A    between atoms: _197  and  _200
REMARK   84  A    between atoms: _200  and  _201
REMARK   85  A    between atoms: _204  and  _206
REMARK   86  A    between atoms: _206  and  _207
REMARK   87  A    between atoms: _209  and  _211
REMARK   88  A    between atoms: _211  and  _212
REMARK   89  A    between atoms: _211  and  _214
REMARK   90  A    between atoms: _214  and  _215
REMARK   91  A    between atoms: _217  and  _219
REMARK   92  A    between atoms: _219  and  _220
REMARK   93  A    between atoms: _219  and  _222
REMARK   94  A    between atoms: _222  and  _223
REMARK   95  A    between atoms: _225  and  _227
REMARK   96  A    between atoms: _227  and  _228
REMARK   97  A    between atoms: _227  and  _230
REMARK   98  A    between atoms: _230  and  _231
REMARK   99  A    between atoms: _233  and  _235
REMARK  100  A    between atoms: _235  and  _236
REMARK  101  A    between atoms: _235  and  _238
REMARK  102  A    between atoms: _238  and  _239
REMARK  103  A    between atoms: _245  and  _247
REMARK  104  A    between atoms: _247  and  _248
REMARK  105  A    between atoms: _247  and  _250
REMARK  106  A    between atoms: _250  and  _251
REMARK  107  A    between atoms: _254  and  _256
REMARK  108  A    between atoms: _256  and  _257
REMARK  109  A    between atoms: _256  and  _259
REMARK  110  A    between atoms: _259  and  _260
REMARK  111  A    between atoms: _263  and  _265
REMARK  112  A    between atoms: _265  and  _266
REMARK  113  A    between atoms: _265  and  _268
REMARK  114  A    between atoms: _268  and  _269
REMARK  115  A    between atoms: _272  and  _274
REMARK  116  A    between atoms: _274  and  _275
REMARK  117  A    between atoms: _277  and  _279
REMARK  118  A    between atoms: _279  and  _280
REMARK  119  A    between atoms: _279  and  _282
REMARK  120  A    between atoms: _282  and  _283
REMARK  121  A    between atoms: _286  and  _288
REMARK  122  A    between atoms: _288  and  _289
REMARK  123  A    between atoms: _288  and  _291
REMARK  124  A    between atoms: _291  and  _292
REMARK  125  A    between atoms: _295  and  _297
REMARK  126  A    between atoms: _297  and  _298
REMARK  127  A    between atoms: _300  and  _302
REMARK  128  A    between atoms: _302  and  _303
REMARK  129  A    between atoms: _302  and  _305
REMARK  130  A    between atoms: _305  and  _306
REMARK  131  A    between atoms: _309  and  _311
REMARK  132  A    between atoms: _311  and  _312
REMARK  133  A    between atoms: _315  and  _317
REMARK  134  A    between atoms: _317  and  _318
REMARK  135  A    between atoms: _317  and  _320
REMARK  136  A    between atoms: _320  and  _321
REMARK  137  A    between atoms: _327  and  _329
REMARK  138  A    between atoms: _329  and  _330
REMARK  139  A    between atoms: _329  and  _332
REMARK  140  A    between atoms: _332  and  _333
REMARK  141  A    between atoms: _336  and  _338
REMARK  142  A    between atoms: _338  and  _339
REMARK  143  A    between atoms: _338  and  _341
REMARK  144  A    between atoms: _341  and  _342
REMARK  145  A    between atoms: _345  and  _347
REMARK  146  A    between atoms: _347  and  _348
REMARK  147  A    between atoms: _347  and  _350
REMARK  148  A    between atoms: _350  and  _351
REMARK  149  A    between atoms: _356  and  _358
REMARK  150  A    between atoms: _358  and  _359
REMARK  151  A    between atoms: _358  and  _361
REMARK  152  A    between atoms: _361  and  _362
REMARK  153  A    between atoms: _365  and  _367
REMARK  154  A    between atoms: _367  and  _368
REMARK  155  A    between atoms: _367  and  _370
REMARK  156  A    between atoms: _370  and  _371
REMARK  157  A    between atoms: _371  and  _372
REMARK  158  A    between atoms: _377  and  _379
REMARK  159  A    between atoms: _379  and  _380
REMARK  160  A    between atoms: _382  and  _384
REMARK  161  A    between atoms: _384  and  _385
REMARK  162  A    between atoms: _384  and  _387
REMARK  163  A    between atoms: _387  and  _388
REMARK  164  A    between atoms: _394  and  _396
REMARK  165  A    between atoms: _396  and  _397
REMARK  166  A    between atoms: _396  and  _399
REMARK  167  A    between atoms: _399  and  _400
REMARK  168  A    between atoms: _403  and  _405
REMARK  169  A    between atoms: _405  and  _406
REMARK  170  A    between atoms: _409  and  _411
REMARK  171  A    between atoms: _411  and  _412
REMARK  172  A    between atoms: _411  and  _414
REMARK  173  A    between atoms: _414  and  _415
REMARK  174  A    between atoms: _418  and  _420
REMARK  175  A    between atoms: _420  and  _421
REMARK  176  A    between atoms: _420  and  _423
REMARK  177  A    between atoms: _423  and  _424
REMARK  178  A    between atoms: _427  and  _429
REMARK  179  A    between atoms: _429  and  _430
REMARK  180  A    between atoms: _432  and  _434
REMARK  181  A    between atoms: _434  and  _435
REMARK  182  A    between atoms: _434  and  _437
REMARK  183  A    between atoms: _437  and  _438
REMARK  184  A    between atoms: _441  and  _443
REMARK  185  A    between atoms: _443  and  _444
REMARK  186  A    between atoms: _443  and  _446
REMARK  187  A    between atoms: _446  and  _447
REMARK  188  A    between atoms: _450  and  _452
REMARK  189  A    between atoms: _452  and  _453
REMARK  190  A    between atoms: _452  and  _455
REMARK  191  A    between atoms: _455  and  _456
REMARK  192  A    between atoms: _459  and  _461
REMARK  193  A    between atoms: _461  and  _462
REMARK  194  A    between atoms: _461  and  _464
REMARK  195  A    between atoms: _464  and  _465
REMARK  196  A    between atoms: _470  and  _471
REMARK  197  A    between atoms: _473  and  _475
REMARK  198  A    between atoms: _475  and  _476
REMARK  199  A    between atoms: _478  and  _480
REMARK  200  A    between atoms: _480  and  _481
REMARK  201  A    between atoms: _480  and  _483
REMARK  202  A    between atoms: _483  and  _484
REMARK  203  A    between atoms: _490  and  _492
REMARK  204  A    between atoms: _492  and  _493
REMARK  205  A    between atoms: _492  and  _495
REMARK  206  A    between atoms: _495  and  _496
REMARK  207  A    between atoms: _502  and  _504
REMARK  208  A    between atoms: _504  and  _505
REMARK  209  A    between atoms: _507  and  _509
REMARK  210  A    between atoms: _509  and  _510
REMARK  211  A    between atoms: _512  and  _514
REMARK  212  A    between atoms: _514  and  _515
REMARK  213  A    between atoms: _514  and  _517
REMARK  214  A    between atoms: _517  and  _518
REMARK  215  A    between atoms: _518  and  _519
REMARK  216  A    between atoms: _524  and  _526
REMARK  217  A    between atoms: _526  and  _527
REMARK  218  A    between atoms: _529  and  _531
REMARK  219  A    between atoms: _531  and  _532
REMARK  220  A    between atoms: _531  and  _534
REMARK  221  A    between atoms: _534  and  _535
REMARK  222  A    between atoms: _538  and  _540
REMARK  223  A    between atoms: _540  and  _541
REMARK  224  A    between atoms: _543  and  _545
REMARK  225  A    between atoms: _545  and  _546
REMARK  226  A    between atoms: _545  and  _548
REMARK  227  A    between atoms: _548  and  _549
REMARK  228  A    between atoms: _552  and  _554
REMARK  229  A    between atoms: _554  and  _555
REMARK  230  A    between atoms: _554  and  _557
REMARK  231  A    between atoms: _557  and  _558
REMARK  232  A    between atoms: _563  and  _565
REMARK  233  A    between atoms: _565  and  _566
REMARK  234  A    between atoms: _565  and  _568
REMARK  235  A    between atoms: _568  and  _569
REMARK  236  A    between atoms: _572  and  _574
REMARK  237  A    between atoms: _574  and  _575
REMARK  238  A    between atoms: _577  and  _579
REMARK  239  A    between atoms: _579  and  _580
REMARK  240  A    between atoms: _579  and  _582
REMARK  241  A    between atoms: _582  and  _583
REMARK                            x       y       z     vdW  Elec       q    Type
REMARK                         _______ _______ _______ _____ _____    ______ ____
ROOT
ATOM      1  O   HOH     1      10.988  26.897  14.005  0.00  0.00    +0.000 OA
ENDROOT
TORSDOF 0
REMARK  Name = ../refined-set-2016/1gvw/1gvw_pocket.pdb
REMARK  241 active torsions:
REMARK  status: ('A' for Active; 'I' for Inactive)
REMARK    1  A    between atoms: _1  and  _3
REMARK    2  A    between atoms: _3  and  _4
REMARK    3  A    between atoms: _3  and  _6
REMARK    4  A    between atoms: _6  and  _7
REMARK    5  A    between atoms: _10  and  _12
REMARK    6  A    between atoms: _12  and  _13
REMARK    7  A    between atoms: _12  and  _15
REMARK    8  A    between atoms: _15  and  _16
REMARK    9  A    between atoms: _19  and  _21
REMARK   10  A    between atoms: _21  and  _22
REMARK   11  A    between atoms: _21  and  _24
REMARK   12  A    between atoms: _24  and  _25
REMARK   13  A    between atoms: _28  and  _30
REMARK   14  A    between atoms: _30  and  _31
REMARK   15  A    between atoms: _30  and  _33
REMARK   16  A    between atoms: _33  and  _34
REMARK   17  A    between atoms: _37  and  _39
REMARK   18  A    between atoms: _39  and  _40
REMARK   19  A    between atoms: _39  and  _42
REMARK   20  A    between atoms: _42  and  _43
REMARK   21  A    between atoms: _46  and  _48
REMARK   22  A    between atoms: _48  and  _49
REMARK   23  A    between atoms: _52  and  _54
REMARK   24  A    between atoms: _54  and  _55
REMARK   25  A    between atoms: _54  and  _57
REMARK   26  A    between atoms: _57  and  _58
REMARK   27  A    between atoms: _63  and  _64
REMARK   28  A    between atoms: _66  and  _68
REMARK   29  A    between atoms: _68  and  _69
REMARK   30  A    between atoms: _68  and  _71
REMARK   31  A    between atoms: _71  and  _72
REMARK   32  A    between atoms: _75  and  _77
REMARK   33  A    between atoms: _77  and  _78
REMARK   34  A    between atoms: _77  and  _80
REMARK   35  A    between atoms: _80  and  _81
REMARK   36  A    between atoms: _87  and  _89
REMARK   37  A    between atoms: _89  and  _90
REMARK   38  A    between atoms: _89  and  _92
REMARK   39  A    between atoms: _92  and  _93
REMARK   40  A    between atoms: _96  and  _98
REMARK   41  A    between atoms: _98  and  _99
REMARK   42  A    between atoms: _98  and  _101
REMARK   43  A    between atoms: _101  and  _102
REMARK   44  A    between atoms: _105  and  _107
REMARK   45  A    between atoms: _107  and  _108
REMARK   46  A    between atoms: _110  and  _112
REMARK   47  A    between atoms: _112  and  _113
REMARK   48  A    between atoms: _112  and  _115
REMARK   49  A    between atoms: _115  and  _116
REMARK   50  A    between atoms: _118  and  _120
REMARK   51  A    between atoms: _120  and  _121
REMARK   52  A    between atoms: _120  and  _123
REMARK   53  A    between atoms: _123  and  _124
REMARK   54  A    between atoms: _126  and  _128
REMARK   55  A    between atoms: _128  and  _129
REMARK   56  A    between atoms: _128  and  _131
REMARK   57  A    between atoms: _131  and  _132
REMARK   58  A    between atoms: _135  and  _137
REMARK   59  A    between atoms: _137  and  _138
REMARK   60  A    between atoms: _137  and  _140
REMARK   61  A    between atoms: _140  and  _141
REMARK   62  A    between atoms: _151  and  _153
REMARK   63  A    between atoms: _153  and  _154
REMARK   64  A    between atoms: _153  and  _156
REMARK   65  A    between atoms: _156  and  _157
REMARK   66  A    between atoms: _159  and  _161
REMARK   67  A    between atoms: _161  and  _162
REMARK   68  A    between atoms: _161  and  _164
REMARK   69  A    between atoms: _164  and  _165
REMARK   70  A    between atoms: _168  and  _170
REMARK   71  A    between atoms: _170  and  _171
REMARK   72  A    between atoms: _170  and  _173
REMARK   73  A    between atoms: _173  and  _174
REMARK   74  A    between atoms: _176  and  _178
REMARK   75  A    between atoms: _178  and  _179
REMARK   76  A    between atoms: _178  and  _181
REMARK   77  A    between atoms: _181  and  _182
REMARK   78  A    between atoms: _187  and  _188
REMARK   79  A    between atoms: _190  and  _192
REMARK   80  A    between atoms: _192  and  _193
REMARK   81  A    between atoms: _195  and  _197
REMARK   82  A    between atoms: _197  and  _198
REMARK   83  A    between atoms: _197  and  _200
REMARK   84  A    between atoms: _200  and  _201
REMARK   85  A    between atoms: _204  and  _206
REMARK   86  A    between atoms: _206  and  _207
REMARK   87  A    between atoms: _209  and  _211
REMARK   88  A    between atoms: _211  and  _212
REMARK   89  A    between atoms: _211  and  _214
REMARK   90  A    between atoms: _214  and  _215
REMARK   91  A    between atoms: _217  and  _219
REMARK   92  A    between atoms: _219  and  _220
REMARK   93  A    between atoms: _219  and  _222
REMARK   94  A    between atoms: _222  and  _223
REMARK   95  A    between atoms: _225  and  _227
REMARK   96  A    between atoms: _227  and  _228
REMARK   97  A    between atoms: _227  and  _230
REMARK   98  A    between atoms: _230  and  _231
REMARK   99  A    between atoms: _233  and  _235
REMARK  100  A    between atoms: _235  and  _236
REMARK  101  A    between atoms: _235  and  _238
REMARK  102  A    between atoms: _238  and  _239
REMARK  103  A    between atoms: _245  and  _247
REMARK  104  A    between atoms: _247  and  _248
REMARK  105  A    between atoms: _247  and  _250
REMARK  106  A    between atoms: _250  and  _251
REMARK  107  A    between atoms: _254  and  _256
REMARK  108  A    between atoms: _256  and  _257
REMARK  109  A    between atoms: _256  and  _259
REMARK  110  A    between atoms: _259  and  _260
REMARK  111  A    between atoms: _263  and  _265
REMARK  112  A    between atoms: _265  and  _266
REMARK  113  A    between atoms: _265  and  _268
REMARK  114  A    between atoms: _268  and  _269
REMARK  115  A    between atoms: _272  and  _274
REMARK  116  A    between atoms: _274  and  _275
REMARK  117  A    between atoms: _277  and  _279
REMARK  118  A    between atoms: _279  and  _280
REMARK  119  A    between atoms: _279  and  _282
REMARK  120  A    between atoms: _282  and  _283
REMARK  121  A    between atoms: _286  and  _288
REMARK  122  A    between atoms: _288  and  _289
REMARK  123  A    between atoms: _288  and  _291
REMARK  124  A    between atoms: _291  and  _292
REMARK  125  A    between atoms: _295  and  _297
REMARK  126  A    between atoms: _297  and  _298
REMARK  127  A    between atoms: _300  and  _302
REMARK  128  A    between atoms: _302  and  _303
REMARK  129  A    between atoms: _302  and  _305
REMARK  130  A    between atoms: _305  and  _306
REMARK  131  A    between atoms: _309  and  _311
REMARK  132  A    between atoms: _311  and  _312
REMARK  133  A    between atoms: _315  and  _317
REMARK  134  A    between atoms: _317  and  _318
REMARK  135  A    between atoms: _317  and  _320
REMARK  136  A    between atoms: _320  and  _321
REMARK  137  A    between atoms: _327  and  _329
REMARK  138  A    between atoms: _329  and  _330
REMARK  139  A    between atoms: _329  and  _332
REMARK  140  A    between atoms: _332  and  _333
REMARK  141  A    between atoms: _336  and  _338
REMARK  142  A    between atoms: _338  and  _339
REMARK  143  A    between atoms: _338  and  _341
REMARK  144  A    between atoms: _341  and  _342
REMARK  145  A    between atoms: _345  and  _347
REMARK  146  A    between atoms: _347  and  _348
REMARK  147  A    between atoms: _347  and  _350
REMARK  148  A    between atoms: _350  and  _351
REMARK  149  A    between atoms: _356  and  _358
REMARK  150  A    between atoms: _358  and  _359
REMARK  151  A    between atoms: _358  and  _361
REMARK  152  A    between atoms: _361  and  _362
REMARK  153  A    between atoms: _365  and  _367
REMARK  154  A    between atoms: _367  and  _368
REMARK  155  A    between atoms: _367  and  _370
REMARK  156  A    between atoms: _370  and  _371
REMARK  157  A    between atoms: _371  and  _372
REMARK  158  A    between atoms: _377  and  _379
REMARK  159  A    between atoms: _379  and  _380
REMARK  160  A    between atoms: _382  and  _384
REMARK  161  A    between atoms: _384  and  _385
REMARK  162  A    between atoms: _384  and  _387
REMARK  163  A    between atoms: _387  and  _388
REMARK  164  A    between atoms: _394  and  _396
REMARK  165  A    between atoms: _396  and  _397
REMARK  166  A    between atoms: _396  and  _399
REMARK  167  A    between atoms: _399  and  _400
REMARK  168  A    between atoms: _403  and  _405
REMARK  169  A    between atoms: _405  and  _406
REMARK  170  A    between atoms: _409  and  _411
REMARK  171  A    between atoms: _411  and  _412
REMARK  172  A    between atoms: _411  and  _414
REMARK  173  A    between atoms: _414  and  _415
REMARK  174  A    between atoms: _418  and  _420
REMARK  175  A    between atoms: _420  and  _421
REMARK  176  A    between atoms: _420  and  _423
REMARK  177  A    between atoms: _423  and  _424
REMARK  178  A    between atoms: _427  and  _429
REMARK  179  A    between atoms: _429  and  _430
REMARK  180  A    between atoms: _432  and  _434
REMARK  181  A    between atoms: _434  and  _435
REMARK  182  A    between atoms: _434  and  _437
REMARK  183  A    between atoms: _437  and  _438
REMARK  184  A    between atoms: _441  and  _443
REMARK  185  A    between atoms: _443  and  _444
REMARK  186  A    between atoms: _443  and  _446
REMARK  187  A    between atoms: _446  and  _447
REMARK  188  A    between atoms: _450  and  _452
REMARK  189  A    between atoms: _452  and  _453
REMARK  190  A    between atoms: _452  and  _455
REMARK  191  A    between atoms: _455  and  _456
REMARK  192  A    between atoms: _459  and  _461
REMARK  193  A    between atoms: _461  and  _462
REMARK  194  A    between atoms: _461  and  _464
REMARK  195  A    between atoms: _464  and  _465
REMARK  196  A    between atoms: _470  and  _471
REMARK  197  A    between atoms: _473  and  _475
REMARK  198  A    between atoms: _475  and  _476
REMARK  199  A    between atoms: _478  and  _480
REMARK  200  A    between atoms: _480  and  _481
REMARK  201  A    between atoms: _480  and  _483
REMARK  202  A    between atoms: _483  and  _484
REMARK  203  A    between atoms: _490  and  _492
REMARK  204  A    between atoms: _492  and  _493
REMARK  205  A    between atoms: _492  and  _495
REMARK  206  A    between atoms: _495  and  _496
REMARK  207  A    between atoms: _502  and  _504
REMARK  208  A    between atoms: _504  and  _505
REMARK  209  A    between atoms: _507  and  _509
REMARK  210  A    between atoms: _509  and  _510
REMARK  211  A    between atoms: _512  and  _514
REMARK  212  A    between atoms: _514  and  _515
REMARK  213  A    between atoms: _514  and  _517
REMARK  214  A    between atoms: _517  and  _518
REMARK  215  A    between atoms: _518  and  _519
REMARK  216  A    between atoms: _524  and  _526
REMARK  217  A    between atoms: _526  and  _527
REMARK  218  A    between atoms: _529  and  _531
REMARK  219  A    between atoms: _531  and  _532
REMARK  220  A    between atoms: _531  and  _534
REMARK  221  A    between atoms: _534  and  _535
REMARK  222  A    between atoms: _538  and  _540
REMARK  223  A    between atoms: _540  and  _541
REMARK  224  A    between atoms: _543  and  _545
REMARK  225  A    between atoms: _545  and  _546
REMARK  226  A    between atoms: _545  and  _548
REMARK  227  A    between atoms: _548  and  _549
REMARK  228  A    between atoms: _552  and  _554
REMARK  229  A    between atoms: _554  and  _555
REMARK  230  A    between atoms: _554  and  _557
REMARK  231  A    between atoms: _557  and  _558
REMARK  232  A    between atoms: _563  and  _565
REMARK  233  A    between atoms: _565  and  _566
REMARK  234  A    between atoms: _565  and  _568
REMARK  235  A    between atoms: _568  and  _569
REMARK  236  A    between atoms: _572  and  _574
REMARK  237  A    between atoms: _574  and  _575
REMARK  238  A    between atoms: _577  and  _579
REMARK  239  A    between atoms: _579  and  _580
REMARK  240  A    between atoms: _579  and  _582
REMARK  241  A    between atoms: _582  and  _583
REMARK                            x       y       z     vdW  Elec       q    Type
REMARK                         _______ _______ _______ _____ _____    ______ ____
ROOT
ATOM      1  O   HOH     1       4.823  33.206   5.111  0.00  0.00    +0.000 OA
ENDROOT
TORSDOF 0
REMARK  Name = ../refined-set-2016/1gvw/1gvw_pocket.pdb
REMARK  241 active torsions:
REMARK  status: ('A' for Active; 'I' for Inactive)
REMARK    1  A    between atoms: _1  and  _3
REMARK    2  A    between atoms: _3  and  _4
REMARK    3  A    between atoms: _3  and  _6
REMARK    4  A    between atoms: _6  and  _7
REMARK    5  A    between atoms: _10  and  _12
REMARK    6  A    between atoms: _12  and  _13
REMARK    7  A    between atoms: _12  and  _15
REMARK    8  A    between atoms: _15  and  _16
REMARK    9  A    between atoms: _19  and  _21
REMARK   10  A    between atoms: _21  and  _22
REMARK   11  A    between atoms: _21  and  _24
REMARK   12  A    between atoms: _24  and  _25
REMARK   13  A    between atoms: _28  and  _30
REMARK   14  A    between atoms: _30  and  _31
REMARK   15  A    between atoms: _30  and  _33
REMARK   16  A    between atoms: _33  and  _34
REMARK   17  A    between atoms: _37  and  _39
REMARK   18  A    between atoms: _39  and  _40
REMARK   19  A    between atoms: _39  and  _42
REMARK   20  A    between atoms: _42  and  _43
REMARK   21  A    between atoms: _46  and  _48
REMARK   22  A    between atoms: _48  and  _49
REMARK   23  A    between atoms: _52  and  _54
REMARK   24  A    between atoms: _54  and  _55
REMARK   25  A    between atoms: _54  and  _57
REMARK   26  A    between atoms: _57  and  _58
REMARK   27  A    between atoms: _63  and  _64
REMARK   28  A    between atoms: _66  and  _68
REMARK   29  A    between atoms: _68  and  _69
REMARK   30  A    between atoms: _68  and  _71
REMARK   31  A    between atoms: _71  and  _72
REMARK   32  A    between atoms: _75  and  _77
REMARK   33  A    between atoms: _77  and  _78
REMARK   34  A    between atoms: _77  and  _80
REMARK   35  A    between atoms: _80  and  _81
REMARK   36  A    between atoms: _87  and  _89
REMARK   37  A    between atoms: _89  and  _90
REMARK   38  A    between atoms: _89  and  _92
REMARK   39  A    between atoms: _92  and  _93
REMARK   40  A    between atoms: _96  and  _98
REMARK   41  A    between atoms: _98  and  _99
REMARK   42  A    between atoms: _98  and  _101
REMARK   43  A    between atoms: _101  and  _102
REMARK   44  A    between atoms: _105  and  _107
REMARK   45  A    between atoms: _107  and  _108
REMARK   46  A    between atoms: _110  and  _112
REMARK   47  A    between atoms: _112  and  _113
REMARK   48  A    between atoms: _112  and  _115
REMARK   49  A    between atoms: _115  and  _116
REMARK   50  A    between atoms: _118  and  _120
REMARK   51  A    between atoms: _120  and  _121
REMARK   52  A    between atoms: _120  and  _123
REMARK   53  A    between atoms: _123  and  _124
REMARK   54  A    between atoms: _126  and  _128
REMARK   55  A    between atoms: _128  and  _129
REMARK   56  A    between atoms: _128  and  _131
REMARK   57  A    between atoms: _131  and  _132
REMARK   58  A    between atoms: _135  and  _137
REMARK   59  A    between atoms: _137  and  _138
REMARK   60  A    between atoms: _137  and  _140
REMARK   61  A    between atoms: _140  and  _141
REMARK   62  A    between atoms: _151  and  _153
REMARK   63  A    between atoms: _153  and  _154
REMARK   64  A    between atoms: _153  and  _156
REMARK   65  A    between atoms: _156  and  _157
REMARK   66  A    between atoms: _159  and  _161
REMARK   67  A    between atoms: _161  and  _162
REMARK   68  A    between atoms: _161  and  _164
REMARK   69  A    between atoms: _164  and  _165
REMARK   70  A    between atoms: _168  and  _170
REMARK   71  A    between atoms: _170  and  _171
REMARK   72  A    between atoms: _170  and  _173
REMARK   73  A    between atoms: _173  and  _174
REMARK   74  A    between atoms: _176  and  _178
REMARK   75  A    between atoms: _178  and  _179
REMARK   76  A    between atoms: _178  and  _181
REMARK   77  A    between atoms: _181  and  _182
REMARK   78  A    between atoms: _187  and  _188
REMARK   79  A    between atoms: _190  and  _192
REMARK   80  A    between atoms: _192  and  _193
REMARK   81  A    between atoms: _195  and  _197
REMARK   82  A    between atoms: _197  and  _198
REMARK   83  A    between atoms: _197  and  _200
REMARK   84  A    between atoms: _200  and  _201
REMARK   85  A    between atoms: _204  and  _206
REMARK   86  A    between atoms: _206  and  _207
REMARK   87  A    between atoms: _209  and  _211
REMARK   88  A    between atoms: _211  and  _212
REMARK   89  A    between atoms: _211  and  _214
REMARK   90  A    between atoms: _214  and  _215
REMARK   91  A    between atoms: _217  and  _219
REMARK   92  A    between atoms: _219  and  _220
REMARK   93  A    between atoms: _219  and  _222
REMARK   94  A    between atoms: _222  and  _223
REMARK   95  A    between atoms: _225  and  _227
REMARK   96  A    between atoms: _227  and  _228
REMARK   97  A    between atoms: _227  and  _230
REMARK   98  A    between atoms: _230  and  _231
REMARK   99  A    between atoms: _233  and  _235
REMARK  100  A    between atoms: _235  and  _236
REMARK  101  A    between atoms: _235  and  _238
REMARK  102  A    between atoms: _238  and  _239
REMARK  103  A    between atoms: _245  and  _247
REMARK  104  A    between atoms: _247  and  _248
REMARK  105  A    between atoms: _247  and  _250
REMARK  106  A    between atoms: _250  and  _251
REMARK  107  A    between atoms: _254  and  _256
REMARK  108  A    between atoms: _256  and  _257
REMARK  109  A    between atoms: _256  and  _259
REMARK  110  A    between atoms: _259  and  _260
REMARK  111  A    between atoms: _263  and  _265
REMARK  112  A    between atoms: _265  and  _266
REMARK  113  A    between atoms: _265  and  _268
REMARK  114  A    between atoms: _268  and  _269
REMARK  115  A    between atoms: _272  and  _274
REMARK  116  A    between atoms: _274  and  _275
REMARK  117  A    between atoms: _277  and  _279
REMARK  118  A    between atoms: _279  and  _280
REMARK  119  A    between atoms: _279  and  _282
REMARK  120  A    between atoms: _282  and  _283
REMARK  121  A    between atoms: _286  and  _288
REMARK  122  A    between atoms: _288  and  _289
REMARK  123  A    between atoms: _288  and  _291
REMARK  124  A    between atoms: _291  and  _292
REMARK  125  A    between atoms: _295  and  _297
REMARK  126  A    between atoms: _297  and  _298
REMARK  127  A    between atoms: _300  and  _302
REMARK  128  A    between atoms: _302  and  _303
REMARK  129  A    between atoms: _302  and  _305
REMARK  130  A    between atoms: _305  and  _306
REMARK  131  A    between atoms: _309  and  _311
REMARK  132  A    between atoms: _311  and  _312
REMARK  133  A    between atoms: _315  and  _317
REMARK  134  A    between atoms: _317  and  _318
REMARK  135  A    between atoms: _317  and  _320
REMARK  136  A    between atoms: _320  and  _321
REMARK  137  A    between atoms: _327  and  _329
REMARK  138  A    between atoms: _329  and  _330
REMARK  139  A    between atoms: _329  and  _332
REMARK  140  A    between atoms: _332  and  _333
REMARK  141  A    between atoms: _336  and  _338
REMARK  142  A    between atoms: _338  and  _339
REMARK  143  A    between atoms: _338  and  _341
REMARK  144  A    between atoms: _341  and  _342
REMARK  145  A    between atoms: _345  and  _347
REMARK  146  A    between atoms: _347  and  _348
REMARK  147  A    between atoms: _347  and  _350
REMARK  148  A    between atoms: _350  and  _351
REMARK  149  A    between atoms: _356  and  _358
REMARK  150  A    between atoms: _358  and  _359
REMARK  151  A    between atoms: _358  and  _361
REMARK  152  A    between atoms: _361  and  _362
REMARK  153  A    between atoms: _365  and  _367
REMARK  154  A    between atoms: _367  and  _368
REMARK  155  A    between atoms: _367  and  _370
REMARK  156  A    between atoms: _370  and  _371
REMARK  157  A    between atoms: _371  and  _372
REMARK  158  A    between atoms: _377  and  _379
REMARK  159  A    between atoms: _379  and  _380
REMARK  160  A    between atoms: _382  and  _384
REMARK  161  A    between atoms: _384  and  _385
REMARK  162  A    between atoms: _384  and  _387
REMARK  163  A    between atoms: _387  and  _388
REMARK  164  A    between atoms: _394  and  _396
REMARK  165  A    between atoms: _396  and  _397
REMARK  166  A    between atoms: _396  and  _399
REMARK  167  A    between atoms: _399  and  _400
REMARK  168  A    between atoms: _403  and  _405
REMARK  169  A    between atoms: _405  and  _406
REMARK  170  A    between atoms: _409  and  _411
REMARK  171  A    between atoms: _411  and  _412
REMARK  172  A    between atoms: _411  and  _414
REMARK  173  A    between atoms: _414  and  _415
REMARK  174  A    between atoms: _418  and  _420
REMARK  175  A    between atoms: _420  and  _421
REMARK  176  A    between atoms: _420  and  _423
REMARK  177  A    between atoms: _423  and  _424
REMARK  178  A    between atoms: _427  and  _429
REMARK  179  A    between atoms: _429  and  _430
REMARK  180  A    between atoms: _432  and  _434
REMARK  181  A    between atoms: _434  and  _435
REMARK  182  A    between atoms: _434  and  _437
REMARK  183  A    between atoms: _437  and  _438
REMARK  184  A    between atoms: _441  and  _443
REMARK  185  A    between atoms: _443  and  _444
REMARK  186  A    between atoms: _443  and  _446
REMARK  187  A    between atoms: _446  and  _447
REMARK  188  A    between atoms: _450  and  _452
REMARK  189  A    between atoms: _452  and  _453
REMARK  190  A    between atoms: _452  and  _455
REMARK  191  A    between atoms: _455  and  _456
REMARK  192  A    between atoms: _459  and  _461
REMARK  193  A    between atoms: _461  and  _462
REMARK  194  A    between atoms: _461  and  _464
REMARK  195  A    between atoms: _464  and  _465
REMARK  196  A    between atoms: _470  and  _471
REMARK  197  A    between atoms: _473  and  _475
REMARK  198  A    between atoms: _475  and  _476
REMARK  199  A    between atoms: _478  and  _480
REMARK  200  A    between atoms: _480  and  _481
REMARK  201  A    between atoms: _480  and  _483
REMARK  202  A    between atoms: _483  and  _484
REMARK  203  A    between atoms: _490  and  _492
REMARK  204  A    between atoms: _492  and  _493
REMARK  205  A    between atoms: _492  and  _495
REMARK  206  A    between atoms: _495  and  _496
REMARK  207  A    between atoms: _502  and  _504
REMARK  208  A    between atoms: _504  and  _505
REMARK  209  A    between atoms: _507  and  _509
REMARK  210  A    between atoms: _509  and  _510
REMARK  211  A    between atoms: _512  and  _514
REMARK  212  A    between atoms: _514  and  _515
REMARK  213  A    between atoms: _514  and  _517
REMARK  214  A    between atoms: _517  and  _518
REMARK  215  A    between atoms: _518  and  _519
REMARK  216  A    between atoms: _524  and  _526
REMARK  217  A    between atoms: _526  and  _527
REMARK  218  A    between atoms: _529  and  _531
REMARK  219  A    between atoms: _531  and  _532
REMARK  220  A    between atoms: _531  and  _534
REMARK  221  A    between atoms: _534  and  _535
REMARK  222  A    between atoms: _538  and  _540
REMARK  223  A    between atoms: _540  and  _541
REMARK  224  A    between atoms: _543  and  _545
REMARK  225  A    between atoms: _545  and  _546
REMARK  226  A    between atoms: _545  and  _548
REMARK  227  A    between atoms: _548  and  _549
REMARK  228  A    between atoms: _552  and  _554
REMARK  229  A    between atoms: _554  and  _555
REMARK  230  A    between atoms: _554  and  _557
REMARK  231  A    between atoms: _557  and  _558
REMARK  232  A    between atoms: _563  and  _565
REMARK  233  A    between atoms: _565  and  _566
REMARK  234  A    between atoms: _565  and  _568
REMARK  235  A    between atoms: _568  and  _569
REMARK  236  A    between atoms: _572  and  _574
REMARK  237  A    between atoms: _574  and  _575
REMARK  238  A    between atoms: _577  and  _579
REMARK  239  A    between atoms: _579  and  _580
REMARK  240  A    between atoms: _579  and  _582
REMARK  241  A    between atoms: _582  and  _583
REMARK                            x       y       z     vdW  Elec       q    Type
REMARK                         _______ _______ _______ _____ _____    ______ ____
ROOT
ATOM      1  O   HOH     1      10.493  38.322  13.785  0.00  0.00    +0.000 OA
ENDROOT
TORSDOF 0
REMARK  Name = ../refined-set-2016/1gvw/1gvw_pocket.pdb
REMARK  241 active torsions:
REMARK  status: ('A' for Active; 'I' for Inactive)
REMARK    1  A    between atoms: _1  and  _3
REMARK    2  A    between atoms: _3  and  _4
REMARK    3  A    between atoms: _3  and  _6
REMARK    4  A    between atoms: _6  and  _7
REMARK    5  A    between atoms: _10  and  _12
REMARK    6  A    between atoms: _12  and  _13
REMARK    7  A    between atoms: _12  and  _15
REMARK    8  A    between atoms: _15  and  _16
REMARK    9  A    between atoms: _19  and  _21
REMARK   10  A    between atoms: _21  and  _22
REMARK   11  A    between atoms: _21  and  _24
REMARK   12  A    between atoms: _24  and  _25
REMARK   13  A    between atoms: _28  and  _30
REMARK   14  A    between atoms: _30  and  _31
REMARK   15  A    between atoms: _30  and  _33
REMARK   16  A    between atoms: _33  and  _34
REMARK   17  A    between atoms: _37  and  _39
REMARK   18  A    between atoms: _39  and  _40
REMARK   19  A    between atoms: _39  and  _42
REMARK   20  A    between atoms: _42  and  _43
REMARK   21  A    between atoms: _46  and  _48
REMARK   22  A    between atoms: _48  and  _49
REMARK   23  A    between atoms: _52  and  _54
REMARK   24  A    between atoms: _54  and  _55
REMARK   25  A    between atoms: _54  and  _57
REMARK   26  A    between atoms: _57  and  _58
REMARK   27  A    between atoms: _63  and  _64
REMARK   28  A    between atoms: _66  and  _68
REMARK   29  A    between atoms: _68  and  _69
REMARK   30  A    between atoms: _68  and  _71
REMARK   31  A    between atoms: _71  and  _72
REMARK   32  A    between atoms: _75  and  _77
REMARK   33  A    between atoms: _77  and  _78
REMARK   34  A    between atoms: _77  and  _80
REMARK   35  A    between atoms: _80  and  _81
REMARK   36  A    between atoms: _87  and  _89
REMARK   37  A    between atoms: _89  and  _90
REMARK   38  A    between atoms: _89  and  _92
REMARK   39  A    between atoms: _92  and  _93
REMARK   40  A    between atoms: _96  and  _98
REMARK   41  A    between atoms: _98  and  _99
REMARK   42  A    between atoms: _98  and  _101
REMARK   43  A    between atoms: _101  and  _102
REMARK   44  A    between atoms: _105  and  _107
REMARK   45  A    between atoms: _107  and  _108
REMARK   46  A    between atoms: _110  and  _112
REMARK   47  A    between atoms: _112  and  _113
REMARK   48  A    between atoms: _112  and  _115
REMARK   49  A    between atoms: _115  and  _116
REMARK   50  A    between atoms: _118  and  _120
REMARK   51  A    between atoms: _120  and  _121
REMARK   52  A    between atoms: _120  and  _123
REMARK   53  A    between atoms: _123  and  _124
REMARK   54  A    between atoms: _126  and  _128
REMARK   55  A    between atoms: _128  and  _129
REMARK   56  A    between atoms: _128  and  _131
REMARK   57  A    between atoms: _131  and  _132
REMARK   58  A    between atoms: _135  and  _137
REMARK   59  A    between atoms: _137  and  _138
REMARK   60  A    between atoms: _137  and  _140
REMARK   61  A    between atoms: _140  and  _141
REMARK   62  A    between atoms: _151  and  _153
REMARK   63  A    between atoms: _153  and  _154
REMARK   64  A    between atoms: _153  and  _156
REMARK   65  A    between atoms: _156  and  _157
REMARK   66  A    between atoms: _159  and  _161
REMARK   67  A    between atoms: _161  and  _162
REMARK   68  A    between atoms: _161  and  _164
REMARK   69  A    between atoms: _164  and  _165
REMARK   70  A    between atoms: _168  and  _170
REMARK   71  A    between atoms: _170  and  _171
REMARK   72  A    between atoms: _170  and  _173
REMARK   73  A    between atoms: _173  and  _174
REMARK   74  A    between atoms: _176  and  _178
REMARK   75  A    between atoms: _178  and  _179
REMARK   76  A    between atoms: _178  and  _181
REMARK   77  A    between atoms: _181  and  _182
REMARK   78  A    between atoms: _187  and  _188
REMARK   79  A    between atoms: _190  and  _192
REMARK   80  A    between atoms: _192  and  _193
REMARK   81  A    between atoms: _195  and  _197
REMARK   82  A    between atoms: _197  and  _198
REMARK   83  A    between atoms: _197  and  _200
REMARK   84  A    between atoms: _200  and  _201
REMARK   85  A    between atoms: _204  and  _206
REMARK   86  A    between atoms: _206  and  _207
REMARK   87  A    between atoms: _209  and  _211
REMARK   88  A    between atoms: _211  and  _212
REMARK   89  A    between atoms: _211  and  _214
REMARK   90  A    between atoms: _214  and  _215
REMARK   91  A    between atoms: _217  and  _219
REMARK   92  A    between atoms: _219  and  _220
REMARK   93  A    between atoms: _219  and  _222
REMARK   94  A    between atoms: _222  and  _223
REMARK   95  A    between atoms: _225  and  _227
REMARK   96  A    between atoms: _227  and  _228
REMARK   97  A    between atoms: _227  and  _230
REMARK   98  A    between atoms: _230  and  _231
REMARK   99  A    between atoms: _233  and  _235
REMARK  100  A    between atoms: _235  and  _236
REMARK  101  A    between atoms: _235  and  _238
REMARK  102  A    between atoms: _238  and  _239
REMARK  103  A    between atoms: _245  and  _247
REMARK  104  A    between atoms: _247  and  _248
REMARK  105  A    between atoms: _247  and  _250
REMARK  106  A    between atoms: _250  and  _251
REMARK  107  A    between atoms: _254  and  _256
REMARK  108  A    between atoms: _256  and  _257
REMARK  109  A    between atoms: _256  and  _259
REMARK  110  A    between atoms: _259  and  _260
REMARK  111  A    between atoms: _263  and  _265
REMARK  112  A    between atoms: _265  and  _266
REMARK  113  A    between atoms: _265  and  _268
REMARK  114  A    between atoms: _268  and  _269
REMARK  115  A    between atoms: _272  and  _274
REMARK  116  A    between atoms: _274  and  _275
REMARK  117  A    between atoms: _277  and  _279
REMARK  118  A    between atoms: _279  and  _280
REMARK  119  A    between atoms: _279  and  _282
REMARK  120  A    between atoms: _282  and  _283
REMARK  121  A    between atoms: _286  and  _288
REMARK  122  A    between atoms: _288  and  _289
REMARK  123  A    between atoms: _288  and  _291
REMARK  124  A    between atoms: _291  and  _292
REMARK  125  A    between atoms: _295  and  _297
REMARK  126  A    between atoms: _297  and  _298
REMARK  127  A    between atoms: _300  and  _302
REMARK  128  A    between atoms: _302  and  _303
REMARK  129  A    between atoms: _302  and  _305
REMARK  130  A    between atoms: _305  and  _306
REMARK  131  A    between atoms: _309  and  _311
REMARK  132  A    between atoms: _311  and  _312
REMARK  133  A    between atoms: _315  and  _317
REMARK  134  A    between atoms: _317  and  _318
REMARK  135  A    between atoms: _317  and  _320
REMARK  136  A    between atoms: _320  and  _321
REMARK  137  A    between atoms: _327  and  _329
REMARK  138  A    between atoms: _329  and  _330
REMARK  139  A    between atoms: _329  and  _332
REMARK  140  A    between atoms: _332  and  _333
REMARK  141  A    between atoms: _336  and  _338
REMARK  142  A    between atoms: _338  and  _339
REMARK  143  A    between atoms: _338  and  _341
REMARK  144  A    between atoms: _341  and  _342
REMARK  145  A    between atoms: _345  and  _347
REMARK  146  A    between atoms: _347  and  _348
REMARK  147  A    between atoms: _347  and  _350
REMARK  148  A    between atoms: _350  and  _351
REMARK  149  A    between atoms: _356  and  _358
REMARK  150  A    between atoms: _358  and  _359
REMARK  151  A    between atoms: _358  and  _361
REMARK  152  A    between atoms: _361  and  _362
REMARK  153  A    between atoms: _365  and  _367
REMARK  154  A    between atoms: _367  and  _368
REMARK  155  A    between atoms: _367  and  _370
REMARK  156  A    between atoms: _370  and  _371
REMARK  157  A    between atoms: _371  and  _372
REMARK  158  A    between atoms: _377  and  _379
REMARK  159  A    between atoms: _379  and  _380
REMARK  160  A    between atoms: _382  and  _384
REMARK  161  A    between atoms: _384  and  _385
REMARK  162  A    between atoms: _384  and  _387
REMARK  163  A    between atoms: _387  and  _388
REMARK  164  A    between atoms: _394  and  _396
REMARK  165  A    between atoms: _396  and  _397
REMARK  166  A    between atoms: _396  and  _399
REMARK  167  A    between atoms: _399  and  _400
REMARK  168  A    between atoms: _403  and  _405
REMARK  169  A    between atoms: _405  and  _406
REMARK  170  A    between atoms: _409  and  _411
REMARK  171  A    between atoms: _411  and  _412
REMARK  172  A    between atoms: _411  and  _414
REMARK  173  A    between atoms: _414  and  _415
REMARK  174  A    between atoms: _418  and  _420
REMARK  175  A    between atoms: _420  and  _421
REMARK  176  A    between atoms: _420  and  _423
REMARK  177  A    between atoms: _423  and  _424
REMARK  178  A    between atoms: _427  and  _429
REMARK  179  A    between atoms: _429  and  _430
REMARK  180  A    between atoms: _432  and  _434
REMARK  181  A    between atoms: _434  and  _435
REMARK  182  A    between atoms: _434  and  _437
REMARK  183  A    between atoms: _437  and  _438
REMARK  184  A    between atoms: _441  and  _443
REMARK  185  A    between atoms: _443  and  _444
REMARK  186  A    between atoms: _443  and  _446
REMARK  187  A    between atoms: _446  and  _447
REMARK  188  A    between atoms: _450  and  _452
REMARK  189  A    between atoms: _452  and  _453
REMARK  190  A    between atoms: _452  and  _455
REMARK  191  A    between atoms: _455  and  _456
REMARK  192  A    between atoms: _459  and  _461
REMARK  193  A    between atoms: _461  and  _462
REMARK  194  A    between atoms: _461  and  _464
REMARK  195  A    between atoms: _464  and  _465
REMARK  196  A    between atoms: _470  and  _471
REMARK  197  A    between atoms: _473  and  _475
REMARK  198  A    between atoms: _475  and  _476
REMARK  199  A    between atoms: _478  and  _480
REMARK  200  A    between atoms: _480  and  _481
REMARK  201  A    between atoms: _480  and  _483
REMARK  202  A    between atoms: _483  and  _484
REMARK  203  A    between atoms: _490  and  _492
REMARK  204  A    between atoms: _492  and  _493
REMARK  205  A    between atoms: _492  and  _495
REMARK  206  A    between atoms: _495  and  _496
REMARK  207  A    between atoms: _502  and  _504
REMARK  208  A    between atoms: _504  and  _505
REMARK  209  A    between atoms: _507  and  _509
REMARK  210  A    between atoms: _509  and  _510
REMARK  211  A    between atoms: _512  and  _514
REMARK  212  A    between atoms: _514  and  _515
REMARK  213  A    between atoms: _514  and  _517
REMARK  214  A    between atoms: _517  and  _518
REMARK  215  A    between atoms: _518  and  _519
REMARK  216  A    between atoms: _524  and  _526
REMARK  217  A    between atoms: _526  and  _527
REMARK  218  A    between atoms: _529  and  _531
REMARK  219  A    between atoms: _531  and  _532
REMARK  220  A    between atoms: _531  and  _534
REMARK  221  A    between atoms: _534  and  _535
REMARK  222  A    between atoms: _538  and  _540
REMARK  223  A    between atoms: _540  and  _541
REMARK  224  A    between atoms: _543  and  _545
REMARK  225  A    between atoms: _545  and  _546
REMARK  226  A    between atoms: _545  and  _548
REMARK  227  A    between atoms: _548  and  _549
REMARK  228  A    between atoms: _552  and  _554
REMARK  229  A    between atoms: _554  and  _555
REMARK  230  A    between atoms: _554  and  _557
REMARK  231  A    between atoms: _557  and  _558
REMARK  232  A    between atoms: _563  and  _565
REMARK  233  A    between atoms: _565  and  _566
REMARK  234  A    between atoms: _565  and  _568
REMARK  235  A    between atoms: _568  and  _569
REMARK  236  A    between atoms: _572  and  _574
REMARK  237  A    between atoms: _574  and  _575
REMARK  238  A    between atoms: _577  and  _579
REMARK  239  A    between atoms: _579  and  _580
REMARK  240  A    between atoms: _579  and  _582
REMARK  241  A    between atoms: _582  and  _583
REMARK                            x       y       z     vdW  Elec       q    Type
REMARK                         _______ _______ _______ _____ _____    ______ ____
ROOT
ATOM      1  O   HOH     1       7.967  41.195  11.023  0.00  0.00    +0.000 OA
ENDROOT
TORSDOF 0
REMARK  Name = ../refined-set-2016/1gvw/1gvw_pocket.pdb
REMARK  241 active torsions:
REMARK  status: ('A' for Active; 'I' for Inactive)
REMARK    1  A    between atoms: _1  and  _3
REMARK    2  A    between atoms: _3  and  _4
REMARK    3  A    between atoms: _3  and  _6
REMARK    4  A    between atoms: _6  and  _7
REMARK    5  A    between atoms: _10  and  _12
REMARK    6  A    between atoms: _12  and  _13
REMARK    7  A    between atoms: _12  and  _15
REMARK    8  A    between atoms: _15  and  _16
REMARK    9  A    between atoms: _19  and  _21
REMARK   10  A    between atoms: _21  and  _22
REMARK   11  A    between atoms: _21  and  _24
REMARK   12  A    between atoms: _24  and  _25
REMARK   13  A    between atoms: _28  and  _30
REMARK   14  A    between atoms: _30  and  _31
REMARK   15  A    between atoms: _30  and  _33
REMARK   16  A    between atoms: _33  and  _34
REMARK   17  A    between atoms: _37  and  _39
REMARK   18  A    between atoms: _39  and  _40
REMARK   19  A    between atoms: _39  and  _42
REMARK   20  A    between atoms: _42  and  _43
REMARK   21  A    between atoms: _46  and  _48
REMARK   22  A    between atoms: _48  and  _49
REMARK   23  A    between atoms: _52  and  _54
REMARK   24  A    between atoms: _54  and  _55
REMARK   25  A    between atoms: _54  and  _57
REMARK   26  A    between atoms: _57  and  _58
REMARK   27  A    between atoms: _63  and  _64
REMARK   28  A    between atoms: _66  and  _68
REMARK   29  A    between atoms: _68  and  _69
REMARK   30  A    between atoms: _68  and  _71
REMARK   31  A    between atoms: _71  and  _72
REMARK   32  A    between atoms: _75  and  _77
REMARK   33  A    between atoms: _77  and  _78
REMARK   34  A    between atoms: _77  and  _80
REMARK   35  A    between atoms: _80  and  _81
REMARK   36  A    between atoms: _87  and  _89
REMARK   37  A    between atoms: _89  and  _90
REMARK   38  A    between atoms: _89  and  _92
REMARK   39  A    between atoms: _92  and  _93
REMARK   40  A    between atoms: _96  and  _98
REMARK   41  A    between atoms: _98  and  _99
REMARK   42  A    between atoms: _98  and  _101
REMARK   43  A    between atoms: _101  and  _102
REMARK   44  A    between atoms: _105  and  _107
REMARK   45  A    between atoms: _107  and  _108
REMARK   46  A    between atoms: _110  and  _112
REMARK   47  A    between atoms: _112  and  _113
REMARK   48  A    between atoms: _112  and  _115
REMARK   49  A    between atoms: _115  and  _116
REMARK   50  A    between atoms: _118  and  _120
REMARK   51  A    between atoms: _120  and  _121
REMARK   52  A    between atoms: _120  and  _123
REMARK   53  A    between atoms: _123  and  _124
REMARK   54  A    between atoms: _126  and  _128
REMARK   55  A    between atoms: _128  and  _129
REMARK   56  A    between atoms: _128  and  _131
REMARK   57  A    between atoms: _131  and  _132
REMARK   58  A    between atoms: _135  and  _137
REMARK   59  A    between atoms: _137  and  _138
REMARK   60  A    between atoms: _137  and  _140
REMARK   61  A    between atoms: _140  and  _141
REMARK   62  A    between atoms: _151  and  _153
REMARK   63  A    between atoms: _153  and  _154
REMARK   64  A    between atoms: _153  and  _156
REMARK   65  A    between atoms: _156  and  _157
REMARK   66  A    between atoms: _159  and  _161
REMARK   67  A    between atoms: _161  and  _162
REMARK   68  A    between atoms: _161  and  _164
REMARK   69  A    between atoms: _164  and  _165
REMARK   70  A    between atoms: _168  and  _170
REMARK   71  A    between atoms: _170  and  _171
REMARK   72  A    between atoms: _170  and  _173
REMARK   73  A    between atoms: _173  and  _174
REMARK   74  A    between atoms: _176  and  _178
REMARK   75  A    between atoms: _178  and  _179
REMARK   76  A    between atoms: _178  and  _181
REMARK   77  A    between atoms: _181  and  _182
REMARK   78  A    between atoms: _187  and  _188
REMARK   79  A    between atoms: _190  and  _192
REMARK   80  A    between atoms: _192  and  _193
REMARK   81  A    between atoms: _195  and  _197
REMARK   82  A    between atoms: _197  and  _198
REMARK   83  A    between atoms: _197  and  _200
REMARK   84  A    between atoms: _200  and  _201
REMARK   85  A    between atoms: _204  and  _206
REMARK   86  A    between atoms: _206  and  _207
REMARK   87  A    between atoms: _209  and  _211
REMARK   88  A    between atoms: _211  and  _212
REMARK   89  A    between atoms: _211  and  _214
REMARK   90  A    between atoms: _214  and  _215
REMARK   91  A    between atoms: _217  and  _219
REMARK   92  A    between atoms: _219  and  _220
REMARK   93  A    between atoms: _219  and  _222
REMARK   94  A    between atoms: _222  and  _223
REMARK   95  A    between atoms: _225  and  _227
REMARK   96  A    between atoms: _227  and  _228
REMARK   97  A    between atoms: _227  and  _230
REMARK   98  A    between atoms: _230  and  _231
REMARK   99  A    between atoms: _233  and  _235
REMARK  100  A    between atoms: _235  and  _236
REMARK  101  A    between atoms: _235  and  _238
REMARK  102  A    between atoms: _238  and  _239
REMARK  103  A    between atoms: _245  and  _247
REMARK  104  A    between atoms: _247  and  _248
REMARK  105  A    between atoms: _247  and  _250
REMARK  106  A    between atoms: _250  and  _251
REMARK  107  A    between atoms: _254  and  _256
REMARK  108  A    between atoms: _256  and  _257
REMARK  109  A    between atoms: _256  and  _259
REMARK  110  A    between atoms: _259  and  _260
REMARK  111  A    between atoms: _263  and  _265
REMARK  112  A    between atoms: _265  and  _266
REMARK  113  A    between atoms: _265  and  _268
REMARK  114  A    between atoms: _268  and  _269
REMARK  115  A    between atoms: _272  and  _274
REMARK  116  A    between atoms: _274  and  _275
REMARK  117  A    between atoms: _277  and  _279
REMARK  118  A    between atoms: _279  and  _280
REMARK  119  A    between atoms: _279  and  _282
REMARK  120  A    between atoms: _282  and  _283
REMARK  121  A    between atoms: _286  and  _288
REMARK  122  A    between atoms: _288  and  _289
REMARK  123  A    between atoms: _288  and  _291
REMARK  124  A    between atoms: _291  and  _292
REMARK  125  A    between atoms: _295  and  _297
REMARK  126  A    between atoms: _297  and  _298
REMARK  127  A    between atoms: _300  and  _302
REMARK  128  A    between atoms: _302  and  _303
REMARK  129  A    between atoms: _302  and  _305
REMARK  130  A    between atoms: _305  and  _306
REMARK  131  A    between atoms: _309  and  _311
REMARK  132  A    between atoms: _311  and  _312
REMARK  133  A    between atoms: _315  and  _317
REMARK  134  A    between atoms: _317  and  _318
REMARK  135  A    between atoms: _317  and  _320
REMARK  136  A    between atoms: _320  and  _321
REMARK  137  A    between atoms: _327  and  _329
REMARK  138  A    between atoms: _329  and  _330
REMARK  139  A    between atoms: _329  and  _332
REMARK  140  A    between atoms: _332  and  _333
REMARK  141  A    between atoms: _336  and  _338
REMARK  142  A    between atoms: _338  and  _339
REMARK  143  A    between atoms: _338  and  _341
REMARK  144  A    between atoms: _341  and  _342
REMARK  145  A    between atoms: _345  and  _347
REMARK  146  A    between atoms: _347  and  _348
REMARK  147  A    between atoms: _347  and  _350
REMARK  148  A    between atoms: _350  and  _351
REMARK  149  A    between atoms: _356  and  _358
REMARK  150  A    between atoms: _358  and  _359
REMARK  151  A    between atoms: _358  and  _361
REMARK  152  A    between atoms: _361  and  _362
REMARK  153  A    between atoms: _365  and  _367
REMARK  154  A    between atoms: _367  and  _368
REMARK  155  A    between atoms: _367  and  _370
REMARK  156  A    between atoms: _370  and  _371
REMARK  157  A    between atoms: _371  and  _372
REMARK  158  A    between atoms: _377  and  _379
REMARK  159  A    between atoms: _379  and  _380
REMARK  160  A    between atoms: _382  and  _384
REMARK  161  A    between atoms: _384  and  _385
REMARK  162  A    between atoms: _384  and  _387
REMARK  163  A    between atoms: _387  and  _388
REMARK  164  A    between atoms: _394  and  _396
REMARK  165  A    between atoms: _396  and  _397
REMARK  166  A    between atoms: _396  and  _399
REMARK  167  A    between atoms: _399  and  _400
REMARK  168  A    between atoms: _403  and  _405
REMARK  169  A    between atoms: _405  and  _406
REMARK  170  A    between atoms: _409  and  _411
REMARK  171  A    between atoms: _411  and  _412
REMARK  172  A    between atoms: _411  and  _414
REMARK  173  A    between atoms: _414  and  _415
REMARK  174  A    between atoms: _418  and  _420
REMARK  175  A    between atoms: _420  and  _421
REMARK  176  A    between atoms: _420  and  _423
REMARK  177  A    between atoms: _423  and  _424
REMARK  178  A    between atoms: _427  and  _429
REMARK  179  A    between atoms: _429  and  _430
REMARK  180  A    between atoms: _432  and  _434
REMARK  181  A    between atoms: _434  and  _435
REMARK  182  A    between atoms: _434  and  _437
REMARK  183  A    between atoms: _437  and  _438
REMARK  184  A    between atoms: _441  and  _443
REMARK  185  A    between atoms: _443  and  _444
REMARK  186  A    between atoms: _443  and  _446
REMARK  187  A    between atoms: _446  and  _447
REMARK  188  A    between atoms: _450  and  _452
REMARK  189  A    between atoms: _452  and  _453
REMARK  190  A    between atoms: _452  and  _455
REMARK  191  A    between atoms: _455  and  _456
REMARK  192  A    between atoms: _459  and  _461
REMARK  193  A    between atoms: _461  and  _462
REMARK  194  A    between atoms: _461  and  _464
REMARK  195  A    between atoms: _464  and  _465
REMARK  196  A    between atoms: _470  and  _471
REMARK  197  A    between atoms: _473  and  _475
REMARK  198  A    between atoms: _475  and  _476
REMARK  199  A    between atoms: _478  and  _480
REMARK  200  A    between atoms: _480  and  _481
REMARK  201  A    between atoms: _480  and  _483
REMARK  202  A    between atoms: _483  and  _484
REMARK  203  A    between atoms: _490  and  _492
REMARK  204  A    between atoms: _492  and  _493
REMARK  205  A    between atoms: _492  and  _495
REMARK  206  A    between atoms: _495  and  _496
REMARK  207  A    between atoms: _502  and  _504
REMARK  208  A    between atoms: _504  and  _505
REMARK  209  A    between atoms: _507  and  _509
REMARK  210  A    between atoms: _509  and  _510
REMARK  211  A    between atoms: _512  and  _514
REMARK  212  A    between atoms: _514  and  _515
REMARK  213  A    between atoms: _514  and  _517
REMARK  214  A    between atoms: _517  and  _518
REMARK  215  A    between atoms: _518  and  _519
REMARK  216  A    between atoms: _524  and  _526
REMARK  217  A    between atoms: _526  and  _527
REMARK  218  A    between atoms: _529  and  _531
REMARK  219  A    between atoms: _531  and  _532
REMARK  220  A    between atoms: _531  and  _534
REMARK  221  A    between atoms: _534  and  _535
REMARK  222  A    between atoms: _538  and  _540
REMARK  223  A    between atoms: _540  and  _541
REMARK  224  A    between atoms: _543  and  _545
REMARK  225  A    between atoms: _545  and  _546
REMARK  226  A    between atoms: _545  and  _548
REMARK  227  A    between atoms: _548  and  _549
REMARK  228  A    between atoms: _552  and  _554
REMARK  229  A    between atoms: _554  and  _555
REMARK  230  A    between atoms: _554  and  _557
REMARK  231  A    between atoms: _557  and  _558
REMARK  232  A    between atoms: _563  and  _565
REMARK  233  A    between atoms: _565  and  _566
REMARK  234  A    between atoms: _565  and  _568
REMARK  235  A    between atoms: _568  and  _569
REMARK  236  A    between atoms: _572  and  _574
REMARK  237  A    between atoms: _574  and  _575
REMARK  238  A    between atoms: _577  and  _579
REMARK  239  A    between atoms: _579  and  _580
REMARK  240  A    between atoms: _579  and  _582
REMARK  241  A    between atoms: _582  and  _583
REMARK                            x       y       z     vdW  Elec       q    Type
REMARK                         _______ _______ _______ _____ _____    ______ ____
ROOT
ATOM      1  O   HOH     1       1.737  43.463  10.380  0.00  0.00    +0.000 OA
ENDROOT
TORSDOF 0
REMARK  Name = ../refined-set-2016/1gvw/1gvw_pocket.pdb
REMARK  241 active torsions:
REMARK  status: ('A' for Active; 'I' for Inactive)
REMARK    1  A    between atoms: _1  and  _3
REMARK    2  A    between atoms: _3  and  _4
REMARK    3  A    between atoms: _3  and  _6
REMARK    4  A    between atoms: _6  and  _7
REMARK    5  A    between atoms: _10  and  _12
REMARK    6  A    between atoms: _12  and  _13
REMARK    7  A    between atoms: _12  and  _15
REMARK    8  A    between atoms: _15  and  _16
REMARK    9  A    between atoms: _19  and  _21
REMARK   10  A    between atoms: _21  and  _22
REMARK   11  A    between atoms: _21  and  _24
REMARK   12  A    between atoms: _24  and  _25
REMARK   13  A    between atoms: _28  and  _30
REMARK   14  A    between atoms: _30  and  _31
REMARK   15  A    between atoms: _30  and  _33
REMARK   16  A    between atoms: _33  and  _34
REMARK   17  A    between atoms: _37  and  _39
REMARK   18  A    between atoms: _39  and  _40
REMARK   19  A    between atoms: _39  and  _42
REMARK   20  A    between atoms: _42  and  _43
REMARK   21  A    between atoms: _46  and  _48
REMARK   22  A    between atoms: _48  and  _49
REMARK   23  A    between atoms: _52  and  _54
REMARK   24  A    between atoms: _54  and  _55
REMARK   25  A    between atoms: _54  and  _57
REMARK   26  A    between atoms: _57  and  _58
REMARK   27  A    between atoms: _63  and  _64
REMARK   28  A    between atoms: _66  and  _68
REMARK   29  A    between atoms: _68  and  _69
REMARK   30  A    between atoms: _68  and  _71
REMARK   31  A    between atoms: _71  and  _72
REMARK   32  A    between atoms: _75  and  _77
REMARK   33  A    between atoms: _77  and  _78
REMARK   34  A    between atoms: _77  and  _80
REMARK   35  A    between atoms: _80  and  _81
REMARK   36  A    between atoms: _87  and  _89
REMARK   37  A    between atoms: _89  and  _90
REMARK   38  A    between atoms: _89  and  _92
REMARK   39  A    between atoms: _92  and  _93
REMARK   40  A    between atoms: _96  and  _98
REMARK   41  A    between atoms: _98  and  _99
REMARK   42  A    between atoms: _98  and  _101
REMARK   43  A    between atoms: _101  and  _102
REMARK   44  A    between atoms: _105  and  _107
REMARK   45  A    between atoms: _107  and  _108
REMARK   46  A    between atoms: _110  and  _112
REMARK   47  A    between atoms: _112  and  _113
REMARK   48  A    between atoms: _112  and  _115
REMARK   49  A    between atoms: _115  and  _116
REMARK   50  A    between atoms: _118  and  _120
REMARK   51  A    between atoms: _120  and  _121
REMARK   52  A    between atoms: _120  and  _123
REMARK   53  A    between atoms: _123  and  _124
REMARK   54  A    between atoms: _126  and  _128
REMARK   55  A    between atoms: _128  and  _129
REMARK   56  A    between atoms: _128  and  _131
REMARK   57  A    between atoms: _131  and  _132
REMARK   58  A    between atoms: _135  and  _137
REMARK   59  A    between atoms: _137  and  _138
REMARK   60  A    between atoms: _137  and  _140
REMARK   61  A    between atoms: _140  and  _141
REMARK   62  A    between atoms: _151  and  _153
REMARK   63  A    between atoms: _153  and  _154
REMARK   64  A    between atoms: _153  and  _156
REMARK   65  A    between atoms: _156  and  _157
REMARK   66  A    between atoms: _159  and  _161
REMARK   67  A    between atoms: _161  and  _162
REMARK   68  A    between atoms: _161  and  _164
REMARK   69  A    between atoms: _164  and  _165
REMARK   70  A    between atoms: _168  and  _170
REMARK   71  A    between atoms: _170  and  _171
REMARK   72  A    between atoms: _170  and  _173
REMARK   73  A    between atoms: _173  and  _174
REMARK   74  A    between atoms: _176  and  _178
REMARK   75  A    between atoms: _178  and  _179
REMARK   76  A    between atoms: _178  and  _181
REMARK   77  A    between atoms: _181  and  _182
REMARK   78  A    between atoms: _187  and  _188
REMARK   79  A    between atoms: _190  and  _192
REMARK   80  A    between atoms: _192  and  _193
REMARK   81  A    between atoms: _195  and  _197
REMARK   82  A    between atoms: _197  and  _198
REMARK   83  A    between atoms: _197  and  _200
REMARK   84  A    between atoms: _200  and  _201
REMARK   85  A    between atoms: _204  and  _206
REMARK   86  A    between atoms: _206  and  _207
REMARK   87  A    between atoms: _209  and  _211
REMARK   88  A    between atoms: _211  and  _212
REMARK   89  A    between atoms: _211  and  _214
REMARK   90  A    between atoms: _214  and  _215
REMARK   91  A    between atoms: _217  and  _219
REMARK   92  A    between atoms: _219  and  _220
REMARK   93  A    between atoms: _219  and  _222
REMARK   94  A    between atoms: _222  and  _223
REMARK   95  A    between atoms: _225  and  _227
REMARK   96  A    between atoms: _227  and  _228
REMARK   97  A    between atoms: _227  and  _230
REMARK   98  A    between atoms: _230  and  _231
REMARK   99  A    between atoms: _233  and  _235
REMARK  100  A    between atoms: _235  and  _236
REMARK  101  A    between atoms: _235  and  _238
REMARK  102  A    between atoms: _238  and  _239
REMARK  103  A    between atoms: _245  and  _247
REMARK  104  A    between atoms: _247  and  _248
REMARK  105  A    between atoms: _247  and  _250
REMARK  106  A    between atoms: _250  and  _251
REMARK  107  A    between atoms: _254  and  _256
REMARK  108  A    between atoms: _256  and  _257
REMARK  109  A    between atoms: _256  and  _259
REMARK  110  A    between atoms: _259  and  _260
REMARK  111  A    between atoms: _263  and  _265
REMARK  112  A    between atoms: _265  and  _266
REMARK  113  A    between atoms: _265  and  _268
REMARK  114  A    between atoms: _268  and  _269
REMARK  115  A    between atoms: _272  and  _274
REMARK  116  A    between atoms: _274  and  _275
REMARK  117  A    between atoms: _277  and  _279
REMARK  118  A    between atoms: _279  and  _280
REMARK  119  A    between atoms: _279  and  _282
REMARK  120  A    between atoms: _282  and  _283
REMARK  121  A    between atoms: _286  and  _288
REMARK  122  A    between atoms: _288  and  _289
REMARK  123  A    between atoms: _288  and  _291
REMARK  124  A    between atoms: _291  and  _292
REMARK  125  A    between atoms: _295  and  _297
REMARK  126  A    between atoms: _297  and  _298
REMARK  127  A    between atoms: _300  and  _302
REMARK  128  A    between atoms: _302  and  _303
REMARK  129  A    between atoms: _302  and  _305
REMARK  130  A    between atoms: _305  and  _306
REMARK  131  A    between atoms: _309  and  _311
REMARK  132  A    between atoms: _311  and  _312
REMARK  133  A    between atoms: _315  and  _317
REMARK  134  A    between atoms: _317  and  _318
REMARK  135  A    between atoms: _317  and  _320
REMARK  136  A    between atoms: _320  and  _321
REMARK  137  A    between atoms: _327  and  _329
REMARK  138  A    between atoms: _329  and  _330
REMARK  139  A    between atoms: _329  and  _332
REMARK  140  A    between atoms: _332  and  _333
REMARK  141  A    between atoms: _336  and  _338
REMARK  142  A    between atoms: _338  and  _339
REMARK  143  A    between atoms: _338  and  _341
REMARK  144  A    between atoms: _341  and  _342
REMARK  145  A    between atoms: _345  and  _347
REMARK  146  A    between atoms: _347  and  _348
REMARK  147  A    between atoms: _347  and  _350
REMARK  148  A    between atoms: _350  and  _351
REMARK  149  A    between atoms: _356  and  _358
REMARK  150  A    between atoms: _358  and  _359
REMARK  151  A    between atoms: _358  and  _361
REMARK  152  A    between atoms: _361  and  _362
REMARK  153  A    between atoms: _365  and  _367
REMARK  154  A    between atoms: _367  and  _368
REMARK  155  A    between atoms: _367  and  _370
REMARK  156  A    between atoms: _370  and  _371
REMARK  157  A    between atoms: _371  and  _372
REMARK  158  A    between atoms: _377  and  _379
REMARK  159  A    between atoms: _379  and  _380
REMARK  160  A    between atoms: _382  and  _384
REMARK  161  A    between atoms: _384  and  _385
REMARK  162  A    between atoms: _384  and  _387
REMARK  163  A    between atoms: _387  and  _388
REMARK  164  A    between atoms: _394  and  _396
REMARK  165  A    between atoms: _396  and  _397
REMARK  166  A    between atoms: _396  and  _399
REMARK  167  A    between atoms: _399  and  _400
REMARK  168  A    between atoms: _403  and  _405
REMARK  169  A    between atoms: _405  and  _406
REMARK  170  A    between atoms: _409  and  _411
REMARK  171  A    between atoms: _411  and  _412
REMARK  172  A    between atoms: _411  and  _414
REMARK  173  A    between atoms: _414  and  _415
REMARK  174  A    between atoms: _418  and  _420
REMARK  175  A    between atoms: _420  and  _421
REMARK  176  A    between atoms: _420  and  _423
REMARK  177  A    between atoms: _423  and  _424
REMARK  178  A    between atoms: _427  and  _429
REMARK  179  A    between atoms: _429  and  _430
REMARK  180  A    between atoms: _432  and  _434
REMARK  181  A    between atoms: _434  and  _435
REMARK  182  A    between atoms: _434  and  _437
REMARK  183  A    between atoms: _437  and  _438
REMARK  184  A    between atoms: _441  and  _443
REMARK  185  A    between atoms: _443  and  _444
REMARK  186  A    between atoms: _443  and  _446
REMARK  187  A    between atoms: _446  and  _447
REMARK  188  A    between atoms: _450  and  _452
REMARK  189  A    between atoms: _452  and  _453
REMARK  190  A    between atoms: _452  and  _455
REMARK  191  A    between atoms: _455  and  _456
REMARK  192  A    between atoms: _459  and  _461
REMARK  193  A    between atoms: _461  and  _462
REMARK  194  A    between atoms: _461  and  _464
REMARK  195  A    between atoms: _464  and  _465
REMARK  196  A    between atoms: _470  and  _471
REMARK  197  A    between atoms: _473  and  _475
REMARK  198  A    between atoms: _475  and  _476
REMARK  199  A    between atoms: _478  and  _480
REMARK  200  A    between atoms: _480  and  _481
REMARK  201  A    between atoms: _480  and  _483
REMARK  202  A    between atoms: _483  and  _484
REMARK  203  A    between atoms: _490  and  _492
REMARK  204  A    between atoms: _492  and  _493
REMARK  205  A    between atoms: _492  and  _495
REMARK  206  A    between atoms: _495  and  _496
REMARK  207  A    between atoms: _502  and  _504
REMARK  208  A    between atoms: _504  and  _505
REMARK  209  A    between atoms: _507  and  _509
REMARK  210  A    between atoms: _509  and  _510
REMARK  211  A    between atoms: _512  and  _514
REMARK  212  A    between atoms: _514  and  _515
REMARK  213  A    between atoms: _514  and  _517
REMARK  214  A    between atoms: _517  and  _518
REMARK  215  A    between atoms: _518  and  _519
REMARK  216  A    between atoms: _524  and  _526
REMARK  217  A    between atoms: _526  and  _527
REMARK  218  A    between atoms: _529  and  _531
REMARK  219  A    between atoms: _531  and  _532
REMARK  220  A    between atoms: _531  and  _534
REMARK  221  A    between atoms: _534  and  _535
REMARK  222  A    between atoms: _538  and  _540
REMARK  223  A    between atoms: _540  and  _541
REMARK  224  A    between atoms: _543  and  _545
REMARK  225  A    between atoms: _545  and  _546
REMARK  226  A    between atoms: _545  and  _548
REMARK  227  A    between atoms: _548  and  _549
REMARK  228  A    between atoms: _552  and  _554
REMARK  229  A    between atoms: _554  and  _555
REMARK  230  A    between atoms: _554  and  _557
REMARK  231  A    between atoms: _557  and  _558
REMARK  232  A    between atoms: _563  and  _565
REMARK  233  A    between atoms: _565  and  _566
REMARK  234  A    between atoms: _565  and  _568
REMARK  235  A    between atoms: _568  and  _569
REMARK  236  A    between atoms: _572  and  _574
REMARK  237  A    between atoms: _574  and  _575
REMARK  238  A    between atoms: _577  and  _579
REMARK  239  A    between atoms: _579  and  _580
REMARK  240  A    between atoms: _579  and  _582
REMARK  241  A    between atoms: _582  and  _583
REMARK                            x       y       z     vdW  Elec       q    Type
REMARK                         _______ _______ _______ _____ _____    ______ ____
ROOT
ATOM      1  O   HOH     1       3.401  43.488  15.202  0.00  0.00    +0.000 OA
ENDROOT
TORSDOF 0
REMARK  Name = ../refined-set-2016/1gvw/1gvw_pocket.pdb
REMARK  241 active torsions:
REMARK  status: ('A' for Active; 'I' for Inactive)
REMARK    1  A    between atoms: _1  and  _3
REMARK    2  A    between atoms: _3  and  _4
REMARK    3  A    between atoms: _3  and  _6
REMARK    4  A    between atoms: _6  and  _7
REMARK    5  A    between atoms: _10  and  _12
REMARK    6  A    between atoms: _12  and  _13
REMARK    7  A    between atoms: _12  and  _15
REMARK    8  A    between atoms: _15  and  _16
REMARK    9  A    between atoms: _19  and  _21
REMARK   10  A    between atoms: _21  and  _22
REMARK   11  A    between atoms: _21  and  _24
REMARK   12  A    between atoms: _24  and  _25
REMARK   13  A    between atoms: _28  and  _30
REMARK   14  A    between atoms: _30  and  _31
REMARK   15  A    between atoms: _30  and  _33
REMARK   16  A    between atoms: _33  and  _34
REMARK   17  A    between atoms: _37  and  _39
REMARK   18  A    between atoms: _39  and  _40
REMARK   19  A    between atoms: _39  and  _42
REMARK   20  A    between atoms: _42  and  _43
REMARK   21  A    between atoms: _46  and  _48
REMARK   22  A    between atoms: _48  and  _49
REMARK   23  A    between atoms: _52  and  _54
REMARK   24  A    between atoms: _54  and  _55
REMARK   25  A    between atoms: _54  and  _57
REMARK   26  A    between atoms: _57  and  _58
REMARK   27  A    between atoms: _63  and  _64
REMARK   28  A    between atoms: _66  and  _68
REMARK   29  A    between atoms: _68  and  _69
REMARK   30  A    between atoms: _68  and  _71
REMARK   31  A    between atoms: _71  and  _72
REMARK   32  A    between atoms: _75  and  _77
REMARK   33  A    between atoms: _77  and  _78
REMARK   34  A    between atoms: _77  and  _80
REMARK   35  A    between atoms: _80  and  _81
REMARK   36  A    between atoms: _87  and  _89
REMARK   37  A    between atoms: _89  and  _90
REMARK   38  A    between atoms: _89  and  _92
REMARK   39  A    between atoms: _92  and  _93
REMARK   40  A    between atoms: _96  and  _98
REMARK   41  A    between atoms: _98  and  _99
REMARK   42  A    between atoms: _98  and  _101
REMARK   43  A    between atoms: _101  and  _102
REMARK   44  A    between atoms: _105  and  _107
REMARK   45  A    between atoms: _107  and  _108
REMARK   46  A    between atoms: _110  and  _112
REMARK   47  A    between atoms: _112  and  _113
REMARK   48  A    between atoms: _112  and  _115
REMARK   49  A    between atoms: _115  and  _116
REMARK   50  A    between atoms: _118  and  _120
REMARK   51  A    between atoms: _120  and  _121
REMARK   52  A    between atoms: _120  and  _123
REMARK   53  A    between atoms: _123  and  _124
REMARK   54  A    between atoms: _126  and  _128
REMARK   55  A    between atoms: _128  and  _129
REMARK   56  A    between atoms: _128  and  _131
REMARK   57  A    between atoms: _131  and  _132
REMARK   58  A    between atoms: _135  and  _137
REMARK   59  A    between atoms: _137  and  _138
REMARK   60  A    between atoms: _137  and  _140
REMARK   61  A    between atoms: _140  and  _141
REMARK   62  A    between atoms: _151  and  _153
REMARK   63  A    between atoms: _153  and  _154
REMARK   64  A    between atoms: _153  and  _156
REMARK   65  A    between atoms: _156  and  _157
REMARK   66  A    between atoms: _159  and  _161
REMARK   67  A    between atoms: _161  and  _162
REMARK   68  A    between atoms: _161  and  _164
REMARK   69  A    between atoms: _164  and  _165
REMARK   70  A    between atoms: _168  and  _170
REMARK   71  A    between atoms: _170  and  _171
REMARK   72  A    between atoms: _170  and  _173
REMARK   73  A    between atoms: _173  and  _174
REMARK   74  A    between atoms: _176  and  _178
REMARK   75  A    between atoms: _178  and  _179
REMARK   76  A    between atoms: _178  and  _181
REMARK   77  A    between atoms: _181  and  _182
REMARK   78  A    between atoms: _187  and  _188
REMARK   79  A    between atoms: _190  and  _192
REMARK   80  A    between atoms: _192  and  _193
REMARK   81  A    between atoms: _195  and  _197
REMARK   82  A    between atoms: _197  and  _198
REMARK   83  A    between atoms: _197  and  _200
REMARK   84  A    between atoms: _200  and  _201
REMARK   85  A    between atoms: _204  and  _206
REMARK   86  A    between atoms: _206  and  _207
REMARK   87  A    between atoms: _209  and  _211
REMARK   88  A    between atoms: _211  and  _212
REMARK   89  A    between atoms: _211  and  _214
REMARK   90  A    between atoms: _214  and  _215
REMARK   91  A    between atoms: _217  and  _219
REMARK   92  A    between atoms: _219  and  _220
REMARK   93  A    between atoms: _219  and  _222
REMARK   94  A    between atoms: _222  and  _223
REMARK   95  A    between atoms: _225  and  _227
REMARK   96  A    between atoms: _227  and  _228
REMARK   97  A    between atoms: _227  and  _230
REMARK   98  A    between atoms: _230  and  _231
REMARK   99  A    between atoms: _233  and  _235
REMARK  100  A    between atoms: _235  and  _236
REMARK  101  A    between atoms: _235  and  _238
REMARK  102  A    between atoms: _238  and  _239
REMARK  103  A    between atoms: _245  and  _247
REMARK  104  A    between atoms: _247  and  _248
REMARK  105  A    between atoms: _247  and  _250
REMARK  106  A    between atoms: _250  and  _251
REMARK  107  A    between atoms: _254  and  _256
REMARK  108  A    between atoms: _256  and  _257
REMARK  109  A    between atoms: _256  and  _259
REMARK  110  A    between atoms: _259  and  _260
REMARK  111  A    between atoms: _263  and  _265
REMARK  112  A    between atoms: _265  and  _266
REMARK  113  A    between atoms: _265  and  _268
REMARK  114  A    between atoms: _268  and  _269
REMARK  115  A    between atoms: _272  and  _274
REMARK  116  A    between atoms: _274  and  _275
REMARK  117  A    between atoms: _277  and  _279
REMARK  118  A    between atoms: _279  and  _280
REMARK  119  A    between atoms: _279  and  _282
REMARK  120  A    between atoms: _282  and  _283
REMARK  121  A    between atoms: _286  and  _288
REMARK  122  A    between atoms: _288  and  _289
REMARK  123  A    between atoms: _288  and  _291
REMARK  124  A    between atoms: _291  and  _292
REMARK  125  A    between atoms: _295  and  _297
REMARK  126  A    between atoms: _297  and  _298
REMARK  127  A    between atoms: _300  and  _302
REMARK  128  A    between atoms: _302  and  _303
REMARK  129  A    between atoms: _302  and  _305
REMARK  130  A    between atoms: _305  and  _306
REMARK  131  A    between atoms: _309  and  _311
REMARK  132  A    between atoms: _311  and  _312
REMARK  133  A    between atoms: _315  and  _317
REMARK  134  A    between atoms: _317  and  _318
REMARK  135  A    between atoms: _317  and  _320
REMARK  136  A    between atoms: _320  and  _321
REMARK  137  A    between atoms: _327  and  _329
REMARK  138  A    between atoms: _329  and  _330
REMARK  139  A    between atoms: _329  and  _332
REMARK  140  A    between atoms: _332  and  _333
REMARK  141  A    between atoms: _336  and  _338
REMARK  142  A    between atoms: _338  and  _339
REMARK  143  A    between atoms: _338  and  _341
REMARK  144  A    between atoms: _341  and  _342
REMARK  145  A    between atoms: _345  and  _347
REMARK  146  A    between atoms: _347  and  _348
REMARK  147  A    between atoms: _347  and  _350
REMARK  148  A    between atoms: _350  and  _351
REMARK  149  A    between atoms: _356  and  _358
REMARK  150  A    between atoms: _358  and  _359
REMARK  151  A    between atoms: _358  and  _361
REMARK  152  A    between atoms: _361  and  _362
REMARK  153  A    between atoms: _365  and  _367
REMARK  154  A    between atoms: _367  and  _368
REMARK  155  A    between atoms: _367  and  _370
REMARK  156  A    between atoms: _370  and  _371
REMARK  157  A    between atoms: _371  and  _372
REMARK  158  A    between atoms: _377  and  _379
REMARK  159  A    between atoms: _379  and  _380
REMARK  160  A    between atoms: _382  and  _384
REMARK  161  A    between atoms: _384  and  _385
REMARK  162  A    between atoms: _384  and  _387
REMARK  163  A    between atoms: _387  and  _388
REMARK  164  A    between atoms: _394  and  _396
REMARK  165  A    between atoms: _396  and  _397
REMARK  166  A    between atoms: _396  and  _399
REMARK  167  A    between atoms: _399  and  _400
REMARK  168  A    between atoms: _403  and  _405
REMARK  169  A    between atoms: _405  and  _406
REMARK  170  A    between atoms: _409  and  _411
REMARK  171  A    between atoms: _411  and  _412
REMARK  172  A    between atoms: _411  and  _414
REMARK  173  A    between atoms: _414  and  _415
REMARK  174  A    between atoms: _418  and  _420
REMARK  175  A    between atoms: _420  and  _421
REMARK  176  A    between atoms: _420  and  _423
REMARK  177  A    between atoms: _423  and  _424
REMARK  178  A    between atoms: _427  and  _429
REMARK  179  A    between atoms: _429  and  _430
REMARK  180  A    between atoms: _432  and  _434
REMARK  181  A    between atoms: _434  and  _435
REMARK  182  A    between atoms: _434  and  _437
REMARK  183  A    between atoms: _437  and  _438
REMARK  184  A    between atoms: _441  and  _443
REMARK  185  A    between atoms: _443  and  _444
REMARK  186  A    between atoms: _443  and  _446
REMARK  187  A    between atoms: _446  and  _447
REMARK  188  A    between atoms: _450  and  _452
REMARK  189  A    between atoms: _452  and  _453
REMARK  190  A    between atoms: _452  and  _455
REMARK  191  A    between atoms: _455  and  _456
REMARK  192  A    between atoms: _459  and  _461
REMARK  193  A    between atoms: _461  and  _462
REMARK  194  A    between atoms: _461  and  _464
REMARK  195  A    between atoms: _464  and  _465
REMARK  196  A    between atoms: _470  and  _471
REMARK  197  A    between atoms: _473  and  _475
REMARK  198  A    between atoms: _475  and  _476
REMARK  199  A    between atoms: _478  and  _480
REMARK  200  A    between atoms: _480  and  _481
REMARK  201  A    between atoms: _480  and  _483
REMARK  202  A    between atoms: _483  and  _484
REMARK  203  A    between atoms: _490  and  _492
REMARK  204  A    between atoms: _492  and  _493
REMARK  205  A    between atoms: _492  and  _495
REMARK  206  A    between atoms: _495  and  _496
REMARK  207  A    between atoms: _502  and  _504
REMARK  208  A    between atoms: _504  and  _505
REMARK  209  A    between atoms: _507  and  _509
REMARK  210  A    between atoms: _509  and  _510
REMARK  211  A    between atoms: _512  and  _514
REMARK  212  A    between atoms: _514  and  _515
REMARK  213  A    between atoms: _514  and  _517
REMARK  214  A    between atoms: _517  and  _518
REMARK  215  A    between atoms: _518  and  _519
REMARK  216  A    between atoms: _524  and  _526
REMARK  217  A    between atoms: _526  and  _527
REMARK  218  A    between atoms: _529  and  _531
REMARK  219  A    between atoms: _531  and  _532
REMARK  220  A    between atoms: _531  and  _534
REMARK  221  A    between atoms: _534  and  _535
REMARK  222  A    between atoms: _538  and  _540
REMARK  223  A    between atoms: _540  and  _541
REMARK  224  A    between atoms: _543  and  _545
REMARK  225  A    between atoms: _545  and  _546
REMARK  226  A    between atoms: _545  and  _548
REMARK  227  A    between atoms: _548  and  _549
REMARK  228  A    between atoms: _552  and  _554
REMARK  229  A    between atoms: _554  and  _555
REMARK  230  A    between atoms: _554  and  _557
REMARK  231  A    between atoms: _557  and  _558
REMARK  232  A    between atoms: _563  and  _565
REMARK  233  A    between atoms: _565  and  _566
REMARK  234  A    between atoms: _565  and  _568
REMARK  235  A    between atoms: _568  and  _569
REMARK  236  A    between atoms: _572  and  _574
REMARK  237  A    between atoms: _574  and  _575
REMARK  238  A    between atoms: _577  and  _579
REMARK  239  A    between atoms: _579  and  _580
REMARK  240  A    between atoms: _579  and  _582
REMARK  241  A    between atoms: _582  and  _583
REMARK                            x       y       z     vdW  Elec       q    Type
REMARK                         _______ _______ _______ _____ _____    ______ ____
ROOT
ATOM      1  O   HOH     1       1.998  44.793  17.304  0.00  0.00    +0.000 OA
ENDROOT
TORSDOF 0
REMARK  Name = ../refined-set-2016/1gvw/1gvw_pocket.pdb
REMARK  241 active torsions:
REMARK  status: ('A' for Active; 'I' for Inactive)
REMARK    1  A    between atoms: _1  and  _3
REMARK    2  A    between atoms: _3  and  _4
REMARK    3  A    between atoms: _3  and  _6
REMARK    4  A    between atoms: _6  and  _7
REMARK    5  A    between atoms: _10  and  _12
REMARK    6  A    between atoms: _12  and  _13
REMARK    7  A    between atoms: _12  and  _15
REMARK    8  A    between atoms: _15  and  _16
REMARK    9  A    between atoms: _19  and  _21
REMARK   10  A    between atoms: _21  and  _22
REMARK   11  A    between atoms: _21  and  _24
REMARK   12  A    between atoms: _24  and  _25
REMARK   13  A    between atoms: _28  and  _30
REMARK   14  A    between atoms: _30  and  _31
REMARK   15  A    between atoms: _30  and  _33
REMARK   16  A    between atoms: _33  and  _34
REMARK   17  A    between atoms: _37  and  _39
REMARK   18  A    between atoms: _39  and  _40
REMARK   19  A    between atoms: _39  and  _42
REMARK   20  A    between atoms: _42  and  _43
REMARK   21  A    between atoms: _46  and  _48
REMARK   22  A    between atoms: _48  and  _49
REMARK   23  A    between atoms: _52  and  _54
REMARK   24  A    between atoms: _54  and  _55
REMARK   25  A    between atoms: _54  and  _57
REMARK   26  A    between atoms: _57  and  _58
REMARK   27  A    between atoms: _63  and  _64
REMARK   28  A    between atoms: _66  and  _68
REMARK   29  A    between atoms: _68  and  _69
REMARK   30  A    between atoms: _68  and  _71
REMARK   31  A    between atoms: _71  and  _72
REMARK   32  A    between atoms: _75  and  _77
REMARK   33  A    between atoms: _77  and  _78
REMARK   34  A    between atoms: _77  and  _80
REMARK   35  A    between atoms: _80  and  _81
REMARK   36  A    between atoms: _87  and  _89
REMARK   37  A    between atoms: _89  and  _90
REMARK   38  A    between atoms: _89  and  _92
REMARK   39  A    between atoms: _92  and  _93
REMARK   40  A    between atoms: _96  and  _98
REMARK   41  A    between atoms: _98  and  _99
REMARK   42  A    between atoms: _98  and  _101
REMARK   43  A    between atoms: _101  and  _102
REMARK   44  A    between atoms: _105  and  _107
REMARK   45  A    between atoms: _107  and  _108
REMARK   46  A    between atoms: _110  and  _112
REMARK   47  A    between atoms: _112  and  _113
REMARK   48  A    between atoms: _112  and  _115
REMARK   49  A    between atoms: _115  and  _116
REMARK   50  A    between atoms: _118  and  _120
REMARK   51  A    between atoms: _120  and  _121
REMARK   52  A    between atoms: _120  and  _123
REMARK   53  A    between atoms: _123  and  _124
REMARK   54  A    between atoms: _126  and  _128
REMARK   55  A    between atoms: _128  and  _129
REMARK   56  A    between atoms: _128  and  _131
REMARK   57  A    between atoms: _131  and  _132
REMARK   58  A    between atoms: _135  and  _137
REMARK   59  A    between atoms: _137  and  _138
REMARK   60  A    between atoms: _137  and  _140
REMARK   61  A    between atoms: _140  and  _141
REMARK   62  A    between atoms: _151  and  _153
REMARK   63  A    between atoms: _153  and  _154
REMARK   64  A    between atoms: _153  and  _156
REMARK   65  A    between atoms: _156  and  _157
REMARK   66  A    between atoms: _159  and  _161
REMARK   67  A    between atoms: _161  and  _162
REMARK   68  A    between atoms: _161  and  _164
REMARK   69  A    between atoms: _164  and  _165
REMARK   70  A    between atoms: _168  and  _170
REMARK   71  A    between atoms: _170  and  _171
REMARK   72  A    between atoms: _170  and  _173
REMARK   73  A    between atoms: _173  and  _174
REMARK   74  A    between atoms: _176  and  _178
REMARK   75  A    between atoms: _178  and  _179
REMARK   76  A    between atoms: _178  and  _181
REMARK   77  A    between atoms: _181  and  _182
REMARK   78  A    between atoms: _187  and  _188
REMARK   79  A    between atoms: _190  and  _192
REMARK   80  A    between atoms: _192  and  _193
REMARK   81  A    between atoms: _195  and  _197
REMARK   82  A    between atoms: _197  and  _198
REMARK   83  A    between atoms: _197  and  _200
REMARK   84  A    between atoms: _200  and  _201
REMARK   85  A    between atoms: _204  and  _206
REMARK   86  A    between atoms: _206  and  _207
REMARK   87  A    between atoms: _209  and  _211
REMARK   88  A    between atoms: _211  and  _212
REMARK   89  A    between atoms: _211  and  _214
REMARK   90  A    between atoms: _214  and  _215
REMARK   91  A    between atoms: _217  and  _219
REMARK   92  A    between atoms: _219  and  _220
REMARK   93  A    between atoms: _219  and  _222
REMARK   94  A    between atoms: _222  and  _223
REMARK   95  A    between atoms: _225  and  _227
REMARK   96  A    between atoms: _227  and  _228
REMARK   97  A    between atoms: _227  and  _230
REMARK   98  A    between atoms: _230  and  _231
REMARK   99  A    between atoms: _233  and  _235
REMARK  100  A    between atoms: _235  and  _236
REMARK  101  A    between atoms: _235  and  _238
REMARK  102  A    between atoms: _238  and  _239
REMARK  103  A    between atoms: _245  and  _247
REMARK  104  A    between atoms: _247  and  _248
REMARK  105  A    between atoms: _247  and  _250
REMARK  106  A    between atoms: _250  and  _251
REMARK  107  A    between atoms: _254  and  _256
REMARK  108  A    between atoms: _256  and  _257
REMARK  109  A    between atoms: _256  and  _259
REMARK  110  A    between atoms: _259  and  _260
REMARK  111  A    between atoms: _263  and  _265
REMARK  112  A    between atoms: _265  and  _266
REMARK  113  A    between atoms: _265  and  _268
REMARK  114  A    between atoms: _268  and  _269
REMARK  115  A    between atoms: _272  and  _274
REMARK  116  A    between atoms: _274  and  _275
REMARK  117  A    between atoms: _277  and  _279
REMARK  118  A    between atoms: _279  and  _280
REMARK  119  A    between atoms: _279  and  _282
REMARK  120  A    between atoms: _282  and  _283
REMARK  121  A    between atoms: _286  and  _288
REMARK  122  A    between atoms: _288  and  _289
REMARK  123  A    between atoms: _288  and  _291
REMARK  124  A    between atoms: _291  and  _292
REMARK  125  A    between atoms: _295  and  _297
REMARK  126  A    between atoms: _297  and  _298
REMARK  127  A    between atoms: _300  and  _302
REMARK  128  A    between atoms: _302  and  _303
REMARK  129  A    between atoms: _302  and  _305
REMARK  130  A    between atoms: _305  and  _306
REMARK  131  A    between atoms: _309  and  _311
REMARK  132  A    between atoms: _311  and  _312
REMARK  133  A    between atoms: _315  and  _317
REMARK  134  A    between atoms: _317  and  _318
REMARK  135  A    between atoms: _317  and  _320
REMARK  136  A    between atoms: _320  and  _321
REMARK  137  A    between atoms: _327  and  _329
REMARK  138  A    between atoms: _329  and  _330
REMARK  139  A    between atoms: _329  and  _332
REMARK  140  A    between atoms: _332  and  _333
REMARK  141  A    between atoms: _336  and  _338
REMARK  142  A    between atoms: _338  and  _339
REMARK  143  A    between atoms: _338  and  _341
REMARK  144  A    between atoms: _341  and  _342
REMARK  145  A    between atoms: _345  and  _347
REMARK  146  A    between atoms: _347  and  _348
REMARK  147  A    between atoms: _347  and  _350
REMARK  148  A    between atoms: _350  and  _351
REMARK  149  A    between atoms: _356  and  _358
REMARK  150  A    between atoms: _358  and  _359
REMARK  151  A    between atoms: _358  and  _361
REMARK  152  A    between atoms: _361  and  _362
REMARK  153  A    between atoms: _365  and  _367
REMARK  154  A    between atoms: _367  and  _368
REMARK  155  A    between atoms: _367  and  _370
REMARK  156  A    between atoms: _370  and  _371
REMARK  157  A    between atoms: _371  and  _372
REMARK  158  A    between atoms: _377  and  _379
REMARK  159  A    between atoms: _379  and  _380
REMARK  160  A    between atoms: _382  and  _384
REMARK  161  A    between atoms: _384  and  _385
REMARK  162  A    between atoms: _384  and  _387
REMARK  163  A    between atoms: _387  and  _388
REMARK  164  A    between atoms: _394  and  _396
REMARK  165  A    between atoms: _396  and  _397
REMARK  166  A    between atoms: _396  and  _399
REMARK  167  A    between atoms: _399  and  _400
REMARK  168  A    between atoms: _403  and  _405
REMARK  169  A    between atoms: _405  and  _406
REMARK  170  A    between atoms: _409  and  _411
REMARK  171  A    between atoms: _411  and  _412
REMARK  172  A    between atoms: _411  and  _414
REMARK  173  A    between atoms: _414  and  _415
REMARK  174  A    between atoms: _418  and  _420
REMARK  175  A    between atoms: _420  and  _421
REMARK  176  A    between atoms: _420  and  _423
REMARK  177  A    between atoms: _423  and  _424
REMARK  178  A    between atoms: _427  and  _429
REMARK  179  A    between atoms: _429  and  _430
REMARK  180  A    between atoms: _432  and  _434
REMARK  181  A    between atoms: _434  and  _435
REMARK  182  A    between atoms: _434  and  _437
REMARK  183  A    between atoms: _437  and  _438
REMARK  184  A    between atoms: _441  and  _443
REMARK  185  A    between atoms: _443  and  _444
REMARK  186  A    between atoms: _443  and  _446
REMARK  187  A    between atoms: _446  and  _447
REMARK  188  A    between atoms: _450  and  _452
REMARK  189  A    between atoms: _452  and  _453
REMARK  190  A    between atoms: _452  and  _455
REMARK  191  A    between atoms: _455  and  _456
REMARK  192  A    between atoms: _459  and  _461
REMARK  193  A    between atoms: _461  and  _462
REMARK  194  A    between atoms: _461  and  _464
REMARK  195  A    between atoms: _464  and  _465
REMARK  196  A    between atoms: _470  and  _471
REMARK  197  A    between atoms: _473  and  _475
REMARK  198  A    between atoms: _475  and  _476
REMARK  199  A    between atoms: _478  and  _480
REMARK  200  A    between atoms: _480  and  _481
REMARK  201  A    between atoms: _480  and  _483
REMARK  202  A    between atoms: _483  and  _484
REMARK  203  A    between atoms: _490  and  _492
REMARK  204  A    between atoms: _492  and  _493
REMARK  205  A    between atoms: _492  and  _495
REMARK  206  A    between atoms: _495  and  _496
REMARK  207  A    between atoms: _502  and  _504
REMARK  208  A    between atoms: _504  and  _505
REMARK  209  A    between atoms: _507  and  _509
REMARK  210  A    between atoms: _509  and  _510
REMARK  211  A    between atoms: _512  and  _514
REMARK  212  A    between atoms: _514  and  _515
REMARK  213  A    between atoms: _514  and  _517
REMARK  214  A    between atoms: _517  and  _518
REMARK  215  A    between atoms: _518  and  _519
REMARK  216  A    between atoms: _524  and  _526
REMARK  217  A    between atoms: _526  and  _527
REMARK  218  A    between atoms: _529  and  _531
REMARK  219  A    between atoms: _531  and  _532
REMARK  220  A    between atoms: _531  and  _534
REMARK  221  A    between atoms: _534  and  _535
REMARK  222  A    between atoms: _538  and  _540
REMARK  223  A    between atoms: _540  and  _541
REMARK  224  A    between atoms: _543  and  _545
REMARK  225  A    between atoms: _545  and  _546
REMARK  226  A    between atoms: _545  and  _548
REMARK  227  A    between atoms: _548  and  _549
REMARK  228  A    between atoms: _552  and  _554
REMARK  229  A    between atoms: _554  and  _555
REMARK  230  A    between atoms: _554  and  _557
REMARK  231  A    between atoms: _557  and  _558
REMARK  232  A    between atoms: _563  and  _565
REMARK  233  A    between atoms: _565  and  _566
REMARK  234  A    between atoms: _565  and  _568
REMARK  235  A    between atoms: _568  and  _569
REMARK  236  A    between atoms: _572  and  _574
REMARK  237  A    between atoms: _574  and  _575
REMARK  238  A    between atoms: _577  and  _579
REMARK  239  A    between atoms: _579  and  _580
REMARK  240  A    between atoms: _579  and  _582
REMARK  241  A    between atoms: _582  and  _583
REMARK                            x       y       z     vdW  Elec       q    Type
REMARK                         _______ _______ _______ _____ _____    ______ ____
ROOT
ATOM      1  O   HOH     1      -0.801  39.556  18.492  0.00  0.00    +0.000 OA
ENDROOT
TORSDOF 0
REMARK  Name = ../refined-set-2016/1gvw/1gvw_pocket.pdb
REMARK  241 active torsions:
REMARK  status: ('A' for Active; 'I' for Inactive)
REMARK    1  A    between atoms: _1  and  _3
REMARK    2  A    between atoms: _3  and  _4
REMARK    3  A    between atoms: _3  and  _6
REMARK    4  A    between atoms: _6  and  _7
REMARK    5  A    between atoms: _10  and  _12
REMARK    6  A    between atoms: _12  and  _13
REMARK    7  A    between atoms: _12  and  _15
REMARK    8  A    between atoms: _15  and  _16
REMARK    9  A    between atoms: _19  and  _21
REMARK   10  A    between atoms: _21  and  _22
REMARK   11  A    between atoms: _21  and  _24
REMARK   12  A    between atoms: _24  and  _25
REMARK   13  A    between atoms: _28  and  _30
REMARK   14  A    between atoms: _30  and  _31
REMARK   15  A    between atoms: _30  and  _33
REMARK   16  A    between atoms: _33  and  _34
REMARK   17  A    between atoms: _37  and  _39
REMARK   18  A    between atoms: _39  and  _40
REMARK   19  A    between atoms: _39  and  _42
REMARK   20  A    between atoms: _42  and  _43
REMARK   21  A    between atoms: _46  and  _48
REMARK   22  A    between atoms: _48  and  _49
REMARK   23  A    between atoms: _52  and  _54
REMARK   24  A    between atoms: _54  and  _55
REMARK   25  A    between atoms: _54  and  _57
REMARK   26  A    between atoms: _57  and  _58
REMARK   27  A    between atoms: _63  and  _64
REMARK   28  A    between atoms: _66  and  _68
REMARK   29  A    between atoms: _68  and  _69
REMARK   30  A    between atoms: _68  and  _71
REMARK   31  A    between atoms: _71  and  _72
REMARK   32  A    between atoms: _75  and  _77
REMARK   33  A    between atoms: _77  and  _78
REMARK   34  A    between atoms: _77  and  _80
REMARK   35  A    between atoms: _80  and  _81
REMARK   36  A    between atoms: _87  and  _89
REMARK   37  A    between atoms: _89  and  _90
REMARK   38  A    between atoms: _89  and  _92
REMARK   39  A    between atoms: _92  and  _93
REMARK   40  A    between atoms: _96  and  _98
REMARK   41  A    between atoms: _98  and  _99
REMARK   42  A    between atoms: _98  and  _101
REMARK   43  A    between atoms: _101  and  _102
REMARK   44  A    between atoms: _105  and  _107
REMARK   45  A    between atoms: _107  and  _108
REMARK   46  A    between atoms: _110  and  _112
REMARK   47  A    between atoms: _112  and  _113
REMARK   48  A    between atoms: _112  and  _115
REMARK   49  A    between atoms: _115  and  _116
REMARK   50  A    between atoms: _118  and  _120
REMARK   51  A    between atoms: _120  and  _121
REMARK   52  A    between atoms: _120  and  _123
REMARK   53  A    between atoms: _123  and  _124
REMARK   54  A    between atoms: _126  and  _128
REMARK   55  A    between atoms: _128  and  _129
REMARK   56  A    between atoms: _128  and  _131
REMARK   57  A    between atoms: _131  and  _132
REMARK   58  A    between atoms: _135  and  _137
REMARK   59  A    between atoms: _137  and  _138
REMARK   60  A    between atoms: _137  and  _140
REMARK   61  A    between atoms: _140  and  _141
REMARK   62  A    between atoms: _151  and  _153
REMARK   63  A    between atoms: _153  and  _154
REMARK   64  A    between atoms: _153  and  _156
REMARK   65  A    between atoms: _156  and  _157
REMARK   66  A    between atoms: _159  and  _161
REMARK   67  A    between atoms: _161  and  _162
REMARK   68  A    between atoms: _161  and  _164
REMARK   69  A    between atoms: _164  and  _165
REMARK   70  A    between atoms: _168  and  _170
REMARK   71  A    between atoms: _170  and  _171
REMARK   72  A    between atoms: _170  and  _173
REMARK   73  A    between atoms: _173  and  _174
REMARK   74  A    between atoms: _176  and  _178
REMARK   75  A    between atoms: _178  and  _179
REMARK   76  A    between atoms: _178  and  _181
REMARK   77  A    between atoms: _181  and  _182
REMARK   78  A    between atoms: _187  and  _188
REMARK   79  A    between atoms: _190  and  _192
REMARK   80  A    between atoms: _192  and  _193
REMARK   81  A    between atoms: _195  and  _197
REMARK   82  A    between atoms: _197  and  _198
REMARK   83  A    between atoms: _197  and  _200
REMARK   84  A    between atoms: _200  and  _201
REMARK   85  A    between atoms: _204  and  _206
REMARK   86  A    between atoms: _206  and  _207
REMARK   87  A    between atoms: _209  and  _211
REMARK   88  A    between atoms: _211  and  _212
REMARK   89  A    between atoms: _211  and  _214
REMARK   90  A    between atoms: _214  and  _215
REMARK   91  A    between atoms: _217  and  _219
REMARK   92  A    between atoms: _219  and  _220
REMARK   93  A    between atoms: _219  and  _222
REMARK   94  A    between atoms: _222  and  _223
REMARK   95  A    between atoms: _225  and  _227
REMARK   96  A    between atoms: _227  and  _228
REMARK   97  A    between atoms: _227  and  _230
REMARK   98  A    between atoms: _230  and  _231
REMARK   99  A    between atoms: _233  and  _235
REMARK  100  A    between atoms: _235  and  _236
REMARK  101  A    between atoms: _235  and  _238
REMARK  102  A    between atoms: _238  and  _239
REMARK  103  A    between atoms: _245  and  _247
REMARK  104  A    between atoms: _247  and  _248
REMARK  105  A    between atoms: _247  and  _250
REMARK  106  A    between atoms: _250  and  _251
REMARK  107  A    between atoms: _254  and  _256
REMARK  108  A    between atoms: _256  and  _257
REMARK  109  A    between atoms: _256  and  _259
REMARK  110  A    between atoms: _259  and  _260
REMARK  111  A    between atoms: _263  and  _265
REMARK  112  A    between atoms: _265  and  _266
REMARK  113  A    between atoms: _265  and  _268
REMARK  114  A    between atoms: _268  and  _269
REMARK  115  A    between atoms: _272  and  _274
REMARK  116  A    between atoms: _274  and  _275
REMARK  117  A    between atoms: _277  and  _279
REMARK  118  A    between atoms: _279  and  _280
REMARK  119  A    between atoms: _279  and  _282
REMARK  120  A    between atoms: _282  and  _283
REMARK  121  A    between atoms: _286  and  _288
REMARK  122  A    between atoms: _288  and  _289
REMARK  123  A    between atoms: _288  and  _291
REMARK  124  A    between atoms: _291  and  _292
REMARK  125  A    between atoms: _295  and  _297
REMARK  126  A    between atoms: _297  and  _298
REMARK  127  A    between atoms: _300  and  _302
REMARK  128  A    between atoms: _302  and  _303
REMARK  129  A    between atoms: _302  and  _305
REMARK  130  A    between atoms: _305  and  _306
REMARK  131  A    between atoms: _309  and  _311
REMARK  132  A    between atoms: _311  and  _312
REMARK  133  A    between atoms: _315  and  _317
REMARK  134  A    between atoms: _317  and  _318
REMARK  135  A    between atoms: _317  and  _320
REMARK  136  A    between atoms: _320  and  _321
REMARK  137  A    between atoms: _327  and  _329
REMARK  138  A    between atoms: _329  and  _330
REMARK  139  A    between atoms: _329  and  _332
REMARK  140  A    between atoms: _332  and  _333
REMARK  141  A    between atoms: _336  and  _338
REMARK  142  A    between atoms: _338  and  _339
REMARK  143  A    between atoms: _338  and  _341
REMARK  144  A    between atoms: _341  and  _342
REMARK  145  A    between atoms: _345  and  _347
REMARK  146  A    between atoms: _347  and  _348
REMARK  147  A    between atoms: _347  and  _350
REMARK  148  A    between atoms: _350  and  _351
REMARK  149  A    between atoms: _356  and  _358
REMARK  150  A    between atoms: _358  and  _359
REMARK  151  A    between atoms: _358  and  _361
REMARK  152  A    between atoms: _361  and  _362
REMARK  153  A    between atoms: _365  and  _367
REMARK  154  A    between atoms: _367  and  _368
REMARK  155  A    between atoms: _367  and  _370
REMARK  156  A    between atoms: _370  and  _371
REMARK  157  A    between atoms: _371  and  _372
REMARK  158  A    between atoms: _377  and  _379
REMARK  159  A    between atoms: _379  and  _380
REMARK  160  A    between atoms: _382  and  _384
REMARK  161  A    between atoms: _384  and  _385
REMARK  162  A    between atoms: _384  and  _387
REMARK  163  A    between atoms: _387  and  _388
REMARK  164  A    between atoms: _394  and  _396
REMARK  165  A    between atoms: _396  and  _397
REMARK  166  A    between atoms: _396  and  _399
REMARK  167  A    between atoms: _399  and  _400
REMARK  168  A    between atoms: _403  and  _405
REMARK  169  A    between atoms: _405  and  _406
REMARK  170  A    between atoms: _409  and  _411
REMARK  171  A    between atoms: _411  and  _412
REMARK  172  A    between atoms: _411  and  _414
REMARK  173  A    between atoms: _414  and  _415
REMARK  174  A    between atoms: _418  and  _420
REMARK  175  A    between atoms: _420  and  _421
REMARK  176  A    between atoms: _420  and  _423
REMARK  177  A    between atoms: _423  and  _424
REMARK  178  A    between atoms: _427  and  _429
REMARK  179  A    between atoms: _429  and  _430
REMARK  180  A    between atoms: _432  and  _434
REMARK  181  A    between atoms: _434  and  _435
REMARK  182  A    between atoms: _434  and  _437
REMARK  183  A    between atoms: _437  and  _438
REMARK  184  A    between atoms: _441  and  _443
REMARK  185  A    between atoms: _443  and  _444
REMARK  186  A    between atoms: _443  and  _446
REMARK  187  A    between atoms: _446  and  _447
REMARK  188  A    between atoms: _450  and  _452
REMARK  189  A    between atoms: _452  and  _453
REMARK  190  A    between atoms: _452  and  _455
REMARK  191  A    between atoms: _455  and  _456
REMARK  192  A    between atoms: _459  and  _461
REMARK  193  A    between atoms: _461  and  _462
REMARK  194  A    between atoms: _461  and  _464
REMARK  195  A    between atoms: _464  and  _465
REMARK  196  A    between atoms: _470  and  _471
REMARK  197  A    between atoms: _473  and  _475
REMARK  198  A    between atoms: _475  and  _476
REMARK  199  A    between atoms: _478  and  _480
REMARK  200  A    between atoms: _480  and  _481
REMARK  201  A    between atoms: _480  and  _483
REMARK  202  A    between atoms: _483  and  _484
REMARK  203  A    between atoms: _490  and  _492
REMARK  204  A    between atoms: _492  and  _493
REMARK  205  A    between atoms: _492  and  _495
REMARK  206  A    between atoms: _495  and  _496
REMARK  207  A    between atoms: _502  and  _504
REMARK  208  A    between atoms: _504  and  _505
REMARK  209  A    between atoms: _507  and  _509
REMARK  210  A    between atoms: _509  and  _510
REMARK  211  A    between atoms: _512  and  _514
REMARK  212  A    between atoms: _514  and  _515
REMARK  213  A    between atoms: _514  and  _517
REMARK  214  A    between atoms: _517  and  _518
REMARK  215  A    between atoms: _518  and  _519
REMARK  216  A    between atoms: _524  and  _526
REMARK  217  A    between atoms: _526  and  _527
REMARK  218  A    between atoms: _529  and  _531
REMARK  219  A    between atoms: _531  and  _532
REMARK  220  A    between atoms: _531  and  _534
REMARK  221  A    between atoms: _534  and  _535
REMARK  222  A    between atoms: _538  and  _540
REMARK  223  A    between atoms: _540  and  _541
REMARK  224  A    between atoms: _543  and  _545
REMARK  225  A    between atoms: _545  and  _546
REMARK  226  A    between atoms: _545  and  _548
REMARK  227  A    between atoms: _548  and  _549
REMARK  228  A    between atoms: _552  and  _554
REMARK  229  A    between atoms: _554  and  _555
REMARK  230  A    between atoms: _554  and  _557
REMARK  231  A    between atoms: _557  and  _558
REMARK  232  A    between atoms: _563  and  _565
REMARK  233  A    between atoms: _565  and  _566
REMARK  234  A    between atoms: _565  and  _568
REMARK  235  A    between atoms: _568  and  _569
REMARK  236  A    between atoms: _572  and  _574
REMARK  237  A    between atoms: _574  and  _575
REMARK  238  A    between atoms: _577  and  _579
REMARK  239  A    between atoms: _579  and  _580
REMARK  240  A    between atoms: _579  and  _582
REMARK  241  A    between atoms: _582  and  _583
REMARK                            x       y       z     vdW  Elec       q    Type
REMARK                         _______ _______ _______ _____ _____    ______ ____
ROOT
ATOM      1  O   HOH     1       2.130  34.246  24.931  0.00  0.00    +0.000 OA
ENDROOT
TORSDOF 0
REMARK  Name = ../refined-set-2016/1gvw/1gvw_pocket.pdb
REMARK  241 active torsions:
REMARK  status: ('A' for Active; 'I' for Inactive)
REMARK    1  A    between atoms: _1  and  _3
REMARK    2  A    between atoms: _3  and  _4
REMARK    3  A    between atoms: _3  and  _6
REMARK    4  A    between atoms: _6  and  _7
REMARK    5  A    between atoms: _10  and  _12
REMARK    6  A    between atoms: _12  and  _13
REMARK    7  A    between atoms: _12  and  _15
REMARK    8  A    between atoms: _15  and  _16
REMARK    9  A    between atoms: _19  and  _21
REMARK   10  A    between atoms: _21  and  _22
REMARK   11  A    between atoms: _21  and  _24
REMARK   12  A    between atoms: _24  and  _25
REMARK   13  A    between atoms: _28  and  _30
REMARK   14  A    between atoms: _30  and  _31
REMARK   15  A    between atoms: _30  and  _33
REMARK   16  A    between atoms: _33  and  _34
REMARK   17  A    between atoms: _37  and  _39
REMARK   18  A    between atoms: _39  and  _40
REMARK   19  A    between atoms: _39  and  _42
REMARK   20  A    between atoms: _42  and  _43
REMARK   21  A    between atoms: _46  and  _48
REMARK   22  A    between atoms: _48  and  _49
REMARK   23  A    between atoms: _52  and  _54
REMARK   24  A    between atoms: _54  and  _55
REMARK   25  A    between atoms: _54  and  _57
REMARK   26  A    between atoms: _57  and  _58
REMARK   27  A    between atoms: _63  and  _64
REMARK   28  A    between atoms: _66  and  _68
REMARK   29  A    between atoms: _68  and  _69
REMARK   30  A    between atoms: _68  and  _71
REMARK   31  A    between atoms: _71  and  _72
REMARK   32  A    between atoms: _75  and  _77
REMARK   33  A    between atoms: _77  and  _78
REMARK   34  A    between atoms: _77  and  _80
REMARK   35  A    between atoms: _80  and  _81
REMARK   36  A    between atoms: _87  and  _89
REMARK   37  A    between atoms: _89  and  _90
REMARK   38  A    between atoms: _89  and  _92
REMARK   39  A    between atoms: _92  and  _93
REMARK   40  A    between atoms: _96  and  _98
REMARK   41  A    between atoms: _98  and  _99
REMARK   42  A    between atoms: _98  and  _101
REMARK   43  A    between atoms: _101  and  _102
REMARK   44  A    between atoms: _105  and  _107
REMARK   45  A    between atoms: _107  and  _108
REMARK   46  A    between atoms: _110  and  _112
REMARK   47  A    between atoms: _112  and  _113
REMARK   48  A    between atoms: _112  and  _115
REMARK   49  A    between atoms: _115  and  _116
REMARK   50  A    between atoms: _118  and  _120
REMARK   51  A    between atoms: _120  and  _121
REMARK   52  A    between atoms: _120  and  _123
REMARK   53  A    between atoms: _123  and  _124
REMARK   54  A    between atoms: _126  and  _128
REMARK   55  A    between atoms: _128  and  _129
REMARK   56  A    between atoms: _128  and  _131
REMARK   57  A    between atoms: _131  and  _132
REMARK   58  A    between atoms: _135  and  _137
REMARK   59  A    between atoms: _137  and  _138
REMARK   60  A    between atoms: _137  and  _140
REMARK   61  A    between atoms: _140  and  _141
REMARK   62  A    between atoms: _151  and  _153
REMARK   63  A    between atoms: _153  and  _154
REMARK   64  A    between atoms: _153  and  _156
REMARK   65  A    between atoms: _156  and  _157
REMARK   66  A    between atoms: _159  and  _161
REMARK   67  A    between atoms: _161  and  _162
REMARK   68  A    between atoms: _161  and  _164
REMARK   69  A    between atoms: _164  and  _165
REMARK   70  A    between atoms: _168  and  _170
REMARK   71  A    between atoms: _170  and  _171
REMARK   72  A    between atoms: _170  and  _173
REMARK   73  A    between atoms: _173  and  _174
REMARK   74  A    between atoms: _176  and  _178
REMARK   75  A    between atoms: _178  and  _179
REMARK   76  A    between atoms: _178  and  _181
REMARK   77  A    between atoms: _181  and  _182
REMARK   78  A    between atoms: _187  and  _188
REMARK   79  A    between atoms: _190  and  _192
REMARK   80  A    between atoms: _192  and  _193
REMARK   81  A    between atoms: _195  and  _197
REMARK   82  A    between atoms: _197  and  _198
REMARK   83  A    between atoms: _197  and  _200
REMARK   84  A    between atoms: _200  and  _201
REMARK   85  A    between atoms: _204  and  _206
REMARK   86  A    between atoms: _206  and  _207
REMARK   87  A    between atoms: _209  and  _211
REMARK   88  A    between atoms: _211  and  _212
REMARK   89  A    between atoms: _211  and  _214
REMARK   90  A    between atoms: _214  and  _215
REMARK   91  A    between atoms: _217  and  _219
REMARK   92  A    between atoms: _219  and  _220
REMARK   93  A    between atoms: _219  and  _222
REMARK   94  A    between atoms: _222  and  _223
REMARK   95  A    between atoms: _225  and  _227
REMARK   96  A    between atoms: _227  and  _228
REMARK   97  A    between atoms: _227  and  _230
REMARK   98  A    between atoms: _230  and  _231
REMARK   99  A    between atoms: _233  and  _235
REMARK  100  A    between atoms: _235  and  _236
REMARK  101  A    between atoms: _235  and  _238
REMARK  102  A    between atoms: _238  and  _239
REMARK  103  A    between atoms: _245  and  _247
REMARK  104  A    between atoms: _247  and  _248
REMARK  105  A    between atoms: _247  and  _250
REMARK  106  A    between atoms: _250  and  _251
REMARK  107  A    between atoms: _254  and  _256
REMARK  108  A    between atoms: _256  and  _257
REMARK  109  A    between atoms: _256  and  _259
REMARK  110  A    between atoms: _259  and  _260
REMARK  111  A    between atoms: _263  and  _265
REMARK  112  A    between atoms: _265  and  _266
REMARK  113  A    between atoms: _265  and  _268
REMARK  114  A    between atoms: _268  and  _269
REMARK  115  A    between atoms: _272  and  _274
REMARK  116  A    between atoms: _274  and  _275
REMARK  117  A    between atoms: _277  and  _279
REMARK  118  A    between atoms: _279  and  _280
REMARK  119  A    between atoms: _279  and  _282
REMARK  120  A    between atoms: _282  and  _283
REMARK  121  A    between atoms: _286  and  _288
REMARK  122  A    between atoms: _288  and  _289
REMARK  123  A    between atoms: _288  and  _291
REMARK  124  A    between atoms: _291  and  _292
REMARK  125  A    between atoms: _295  and  _297
REMARK  126  A    between atoms: _297  and  _298
REMARK  127  A    between atoms: _300  and  _302
REMARK  128  A    between atoms: _302  and  _303
REMARK  129  A    between atoms: _302  and  _305
REMARK  130  A    between atoms: _305  and  _306
REMARK  131  A    between atoms: _309  and  _311
REMARK  132  A    between atoms: _311  and  _312
REMARK  133  A    between atoms: _315  and  _317
REMARK  134  A    between atoms: _317  and  _318
REMARK  135  A    between atoms: _317  and  _320
REMARK  136  A    between atoms: _320  and  _321
REMARK  137  A    between atoms: _327  and  _329
REMARK  138  A    between atoms: _329  and  _330
REMARK  139  A    between atoms: _329  and  _332
REMARK  140  A    between atoms: _332  and  _333
REMARK  141  A    between atoms: _336  and  _338
REMARK  142  A    between atoms: _338  and  _339
REMARK  143  A    between atoms: _338  and  _341
REMARK  144  A    between atoms: _341  and  _342
REMARK  145  A    between atoms: _345  and  _347
REMARK  146  A    between atoms: _347  and  _348
REMARK  147  A    between atoms: _347  and  _350
REMARK  148  A    between atoms: _350  and  _351
REMARK  149  A    between atoms: _356  and  _358
REMARK  150  A    between atoms: _358  and  _359
REMARK  151  A    between atoms: _358  and  _361
REMARK  152  A    between atoms: _361  and  _362
REMARK  153  A    between atoms: _365  and  _367
REMARK  154  A    between atoms: _367  and  _368
REMARK  155  A    between atoms: _367  and  _370
REMARK  156  A    between atoms: _370  and  _371
REMARK  157  A    between atoms: _371  and  _372
REMARK  158  A    between atoms: _377  and  _379
REMARK  159  A    between atoms: _379  and  _380
REMARK  160  A    between atoms: _382  and  _384
REMARK  161  A    between atoms: _384  and  _385
REMARK  162  A    between atoms: _384  and  _387
REMARK  163  A    between atoms: _387  and  _388
REMARK  164  A    between atoms: _394  and  _396
REMARK  165  A    between atoms: _396  and  _397
REMARK  166  A    between atoms: _396  and  _399
REMARK  167  A    between atoms: _399  and  _400
REMARK  168  A    between atoms: _403  and  _405
REMARK  169  A    between atoms: _405  and  _406
REMARK  170  A    between atoms: _409  and  _411
REMARK  171  A    between atoms: _411  and  _412
REMARK  172  A    between atoms: _411  and  _414
REMARK  173  A    between atoms: _414  and  _415
REMARK  174  A    between atoms: _418  and  _420
REMARK  175  A    between atoms: _420  and  _421
REMARK  176  A    between atoms: _420  and  _423
REMARK  177  A    between atoms: _423  and  _424
REMARK  178  A    between atoms: _427  and  _429
REMARK  179  A    between atoms: _429  and  _430
REMARK  180  A    between atoms: _432  and  _434
REMARK  181  A    between atoms: _434  and  _435
REMARK  182  A    between atoms: _434  and  _437
REMARK  183  A    between atoms: _437  and  _438
REMARK  184  A    between atoms: _441  and  _443
REMARK  185  A    between atoms: _443  and  _444
REMARK  186  A    between atoms: _443  and  _446
REMARK  187  A    between atoms: _446  and  _447
REMARK  188  A    between atoms: _450  and  _452
REMARK  189  A    between atoms: _452  and  _453
REMARK  190  A    between atoms: _452  and  _455
REMARK  191  A    between atoms: _455  and  _456
REMARK  192  A    between atoms: _459  and  _461
REMARK  193  A    between atoms: _461  and  _462
REMARK  194  A    between atoms: _461  and  _464
REMARK  195  A    between atoms: _464  and  _465
REMARK  196  A    between atoms: _470  and  _471
REMARK  197  A    between atoms: _473  and  _475
REMARK  198  A    between atoms: _475  and  _476
REMARK  199  A    between atoms: _478  and  _480
REMARK  200  A    between atoms: _480  and  _481
REMARK  201  A    between atoms: _480  and  _483
REMARK  202  A    between atoms: _483  and  _484
REMARK  203  A    between atoms: _490  and  _492
REMARK  204  A    between atoms: _492  and  _493
REMARK  205  A    between atoms: _492  and  _495
REMARK  206  A    between atoms: _495  and  _496
REMARK  207  A    between atoms: _502  and  _504
REMARK  208  A    between atoms: _504  and  _505
REMARK  209  A    between atoms: _507  and  _509
REMARK  210  A    between atoms: _509  and  _510
REMARK  211  A    between atoms: _512  and  _514
REMARK  212  A    between atoms: _514  and  _515
REMARK  213  A    between atoms: _514  and  _517
REMARK  214  A    between atoms: _517  and  _518
REMARK  215  A    between atoms: _518  and  _519
REMARK  216  A    between atoms: _524  and  _526
REMARK  217  A    between atoms: _526  and  _527
REMARK  218  A    between atoms: _529  and  _531
REMARK  219  A    between atoms: _531  and  _532
REMARK  220  A    between atoms: _531  and  _534
REMARK  221  A    between atoms: _534  and  _535
REMARK  222  A    between atoms: _538  and  _540
REMARK  223  A    between atoms: _540  and  _541
REMARK  224  A    between atoms: _543  and  _545
REMARK  225  A    between atoms: _545  and  _546
REMARK  226  A    between atoms: _545  and  _548
REMARK  227  A    between atoms: _548  and  _549
REMARK  228  A    between atoms: _552  and  _554
REMARK  229  A    between atoms: _554  and  _555
REMARK  230  A    between atoms: _554  and  _557
REMARK  231  A    between atoms: _557  and  _558
REMARK  232  A    between atoms: _563  and  _565
REMARK  233  A    between atoms: _565  and  _566
REMARK  234  A    between atoms: _565  and  _568
REMARK  235  A    between atoms: _568  and  _569
REMARK  236  A    between atoms: _572  and  _574
REMARK  237  A    between atoms: _574  and  _575
REMARK  238  A    between atoms: _577  and  _579
REMARK  239  A    between atoms: _579  and  _580
REMARK  240  A    between atoms: _579  and  _582
REMARK  241  A    between atoms: _582  and  _583
REMARK                            x       y       z     vdW  Elec       q    Type
REMARK                         _______ _______ _______ _____ _____    ______ ____
ROOT
ATOM      1  O   HOH     1       2.902  32.200  23.790  0.00  0.00    +0.000 OA
ENDROOT
TORSDOF 0
REMARK  Name = ../refined-set-2016/1gvw/1gvw_pocket.pdb
REMARK  241 active torsions:
REMARK  status: ('A' for Active; 'I' for Inactive)
REMARK    1  A    between atoms: _1  and  _3
REMARK    2  A    between atoms: _3  and  _4
REMARK    3  A    between atoms: _3  and  _6
REMARK    4  A    between atoms: _6  and  _7
REMARK    5  A    between atoms: _10  and  _12
REMARK    6  A    between atoms: _12  and  _13
REMARK    7  A    between atoms: _12  and  _15
REMARK    8  A    between atoms: _15  and  _16
REMARK    9  A    between atoms: _19  and  _21
REMARK   10  A    between atoms: _21  and  _22
REMARK   11  A    between atoms: _21  and  _24
REMARK   12  A    between atoms: _24  and  _25
REMARK   13  A    between atoms: _28  and  _30
REMARK   14  A    between atoms: _30  and  _31
REMARK   15  A    between atoms: _30  and  _33
REMARK   16  A    between atoms: _33  and  _34
REMARK   17  A    between atoms: _37  and  _39
REMARK   18  A    between atoms: _39  and  _40
REMARK   19  A    between atoms: _39  and  _42
REMARK   20  A    between atoms: _42  and  _43
REMARK   21  A    between atoms: _46  and  _48
REMARK   22  A    between atoms: _48  and  _49
REMARK   23  A    between atoms: _52  and  _54
REMARK   24  A    between atoms: _54  and  _55
REMARK   25  A    between atoms: _54  and  _57
REMARK   26  A    between atoms: _57  and  _58
REMARK   27  A    between atoms: _63  and  _64
REMARK   28  A    between atoms: _66  and  _68
REMARK   29  A    between atoms: _68  and  _69
REMARK   30  A    between atoms: _68  and  _71
REMARK   31  A    between atoms: _71  and  _72
REMARK   32  A    between atoms: _75  and  _77
REMARK   33  A    between atoms: _77  and  _78
REMARK   34  A    between atoms: _77  and  _80
REMARK   35  A    between atoms: _80  and  _81
REMARK   36  A    between atoms: _87  and  _89
REMARK   37  A    between atoms: _89  and  _90
REMARK   38  A    between atoms: _89  and  _92
REMARK   39  A    between atoms: _92  and  _93
REMARK   40  A    between atoms: _96  and  _98
REMARK   41  A    between atoms: _98  and  _99
REMARK   42  A    between atoms: _98  and  _101
REMARK   43  A    between atoms: _101  and  _102
REMARK   44  A    between atoms: _105  and  _107
REMARK   45  A    between atoms: _107  and  _108
REMARK   46  A    between atoms: _110  and  _112
REMARK   47  A    between atoms: _112  and  _113
REMARK   48  A    between atoms: _112  and  _115
REMARK   49  A    between atoms: _115  and  _116
REMARK   50  A    between atoms: _118  and  _120
REMARK   51  A    between atoms: _120  and  _121
REMARK   52  A    between atoms: _120  and  _123
REMARK   53  A    between atoms: _123  and  _124
REMARK   54  A    between atoms: _126  and  _128
REMARK   55  A    between atoms: _128  and  _129
REMARK   56  A    between atoms: _128  and  _131
REMARK   57  A    between atoms: _131  and  _132
REMARK   58  A    between atoms: _135  and  _137
REMARK   59  A    between atoms: _137  and  _138
REMARK   60  A    between atoms: _137  and  _140
REMARK   61  A    between atoms: _140  and  _141
REMARK   62  A    between atoms: _151  and  _153
REMARK   63  A    between atoms: _153  and  _154
REMARK   64  A    between atoms: _153  and  _156
REMARK   65  A    between atoms: _156  and  _157
REMARK   66  A    between atoms: _159  and  _161
REMARK   67  A    between atoms: _161  and  _162
REMARK   68  A    between atoms: _161  and  _164
REMARK   69  A    between atoms: _164  and  _165
REMARK   70  A    between atoms: _168  and  _170
REMARK   71  A    between atoms: _170  and  _171
REMARK   72  A    between atoms: _170  and  _173
REMARK   73  A    between atoms: _173  and  _174
REMARK   74  A    between atoms: _176  and  _178
REMARK   75  A    between atoms: _178  and  _179
REMARK   76  A    between atoms: _178  and  _181
REMARK   77  A    between atoms: _181  and  _182
REMARK   78  A    between atoms: _187  and  _188
REMARK   79  A    between atoms: _190  and  _192
REMARK   80  A    between atoms: _192  and  _193
REMARK   81  A    between atoms: _195  and  _197
REMARK   82  A    between atoms: _197  and  _198
REMARK   83  A    between atoms: _197  and  _200
REMARK   84  A    between atoms: _200  and  _201
REMARK   85  A    between atoms: _204  and  _206
REMARK   86  A    between atoms: _206  and  _207
REMARK   87  A    between atoms: _209  and  _211
REMARK   88  A    between atoms: _211  and  _212
REMARK   89  A    between atoms: _211  and  _214
REMARK   90  A    between atoms: _214  and  _215
REMARK   91  A    between atoms: _217  and  _219
REMARK   92  A    between atoms: _219  and  _220
REMARK   93  A    between atoms: _219  and  _222
REMARK   94  A    between atoms: _222  and  _223
REMARK   95  A    between atoms: _225  and  _227
REMARK   96  A    between atoms: _227  and  _228
REMARK   97  A    between atoms: _227  and  _230
REMARK   98  A    between atoms: _230  and  _231
REMARK   99  A    between atoms: _233  and  _235
REMARK  100  A    between atoms: _235  and  _236
REMARK  101  A    between atoms: _235  and  _238
REMARK  102  A    between atoms: _238  and  _239
REMARK  103  A    between atoms: _245  and  _247
REMARK  104  A    between atoms: _247  and  _248
REMARK  105  A    between atoms: _247  and  _250
REMARK  106  A    between atoms: _250  and  _251
REMARK  107  A    between atoms: _254  and  _256
REMARK  108  A    between atoms: _256  and  _257
REMARK  109  A    between atoms: _256  and  _259
REMARK  110  A    between atoms: _259  and  _260
REMARK  111  A    between atoms: _263  and  _265
REMARK  112  A    between atoms: _265  and  _266
REMARK  113  A    between atoms: _265  and  _268
REMARK  114  A    between atoms: _268  and  _269
REMARK  115  A    between atoms: _272  and  _274
REMARK  116  A    between atoms: _274  and  _275
REMARK  117  A    between atoms: _277  and  _279
REMARK  118  A    between atoms: _279  and  _280
REMARK  119  A    between atoms: _279  and  _282
REMARK  120  A    between atoms: _282  and  _283
REMARK  121  A    between atoms: _286  and  _288
REMARK  122  A    between atoms: _288  and  _289
REMARK  123  A    between atoms: _288  and  _291
REMARK  124  A    between atoms: _291  and  _292
REMARK  125  A    between atoms: _295  and  _297
REMARK  126  A    between atoms: _297  and  _298
REMARK  127  A    between atoms: _300  and  _302
REMARK  128  A    between atoms: _302  and  _303
REMARK  129  A    between atoms: _302  and  _305
REMARK  130  A    between atoms: _305  and  _306
REMARK  131  A    between atoms: _309  and  _311
REMARK  132  A    between atoms: _311  and  _312
REMARK  133  A    between atoms: _315  and  _317
REMARK  134  A    between atoms: _317  and  _318
REMARK  135  A    between atoms: _317  and  _320
REMARK  136  A    between atoms: _320  and  _321
REMARK  137  A    between atoms: _327  and  _329
REMARK  138  A    between atoms: _329  and  _330
REMARK  139  A    between atoms: _329  and  _332
REMARK  140  A    between atoms: _332  and  _333
REMARK  141  A    between atoms: _336  and  _338
REMARK  142  A    between atoms: _338  and  _339
REMARK  143  A    between atoms: _338  and  _341
REMARK  144  A    between atoms: _341  and  _342
REMARK  145  A    between atoms: _345  and  _347
REMARK  146  A    between atoms: _347  and  _348
REMARK  147  A    between atoms: _347  and  _350
REMARK  148  A    between atoms: _350  and  _351
REMARK  149  A    between atoms: _356  and  _358
REMARK  150  A    between atoms: _358  and  _359
REMARK  151  A    between atoms: _358  and  _361
REMARK  152  A    between atoms: _361  and  _362
REMARK  153  A    between atoms: _365  and  _367
REMARK  154  A    between atoms: _367  and  _368
REMARK  155  A    between atoms: _367  and  _370
REMARK  156  A    between atoms: _370  and  _371
REMARK  157  A    between atoms: _371  and  _372
REMARK  158  A    between atoms: _377  and  _379
REMARK  159  A    between atoms: _379  and  _380
REMARK  160  A    between atoms: _382  and  _384
REMARK  161  A    between atoms: _384  and  _385
REMARK  162  A    between atoms: _384  and  _387
REMARK  163  A    between atoms: _387  and  _388
REMARK  164  A    between atoms: _394  and  _396
REMARK  165  A    between atoms: _396  and  _397
REMARK  166  A    between atoms: _396  and  _399
REMARK  167  A    between atoms: _399  and  _400
REMARK  168  A    between atoms: _403  and  _405
REMARK  169  A    between atoms: _405  and  _406
REMARK  170  A    between atoms: _409  and  _411
REMARK  171  A    between atoms: _411  and  _412
REMARK  172  A    between atoms: _411  and  _414
REMARK  173  A    between atoms: _414  and  _415
REMARK  174  A    between atoms: _418  and  _420
REMARK  175  A    between atoms: _420  and  _421
REMARK  176  A    between atoms: _420  and  _423
REMARK  177  A    between atoms: _423  and  _424
REMARK  178  A    between atoms: _427  and  _429
REMARK  179  A    between atoms: _429  and  _430
REMARK  180  A    between atoms: _432  and  _434
REMARK  181  A    between atoms: _434  and  _435
REMARK  182  A    between atoms: _434  and  _437
REMARK  183  A    between atoms: _437  and  _438
REMARK  184  A    between atoms: _441  and  _443
REMARK  185  A    between atoms: _443  and  _444
REMARK  186  A    between atoms: _443  and  _446
REMARK  187  A    between atoms: _446  and  _447
REMARK  188  A    between atoms: _450  and  _452
REMARK  189  A    between atoms: _452  and  _453
REMARK  190  A    between atoms: _452  and  _455
REMARK  191  A    between atoms: _455  and  _456
REMARK  192  A    between atoms: _459  and  _461
REMARK  193  A    between atoms: _461  and  _462
REMARK  194  A    between atoms: _461  and  _464
REMARK  195  A    between atoms: _464  and  _465
REMARK  196  A    between atoms: _470  and  _471
REMARK  197  A    between atoms: _473  and  _475
REMARK  198  A    between atoms: _475  and  _476
REMARK  199  A    between atoms: _478  and  _480
REMARK  200  A    between atoms: _480  and  _481
REMARK  201  A    between atoms: _480  and  _483
REMARK  202  A    between atoms: _483  and  _484
REMARK  203  A    between atoms: _490  and  _492
REMARK  204  A    between atoms: _492  and  _493
REMARK  205  A    between atoms: _492  and  _495
REMARK  206  A    between atoms: _495  and  _496
REMARK  207  A    between atoms: _502  and  _504
REMARK  208  A    between atoms: _504  and  _505
REMARK  209  A    between atoms: _507  and  _509
REMARK  210  A    between atoms: _509  and  _510
REMARK  211  A    between atoms: _512  and  _514
REMARK  212  A    between atoms: _514  and  _515
REMARK  213  A    between atoms: _514  and  _517
REMARK  214  A    between atoms: _517  and  _518
REMARK  215  A    between atoms: _518  and  _519
REMARK  216  A    between atoms: _524  and  _526
REMARK  217  A    between atoms: _526  and  _527
REMARK  218  A    between atoms: _529  and  _531
REMARK  219  A    between atoms: _531  and  _532
REMARK  220  A    between atoms: _531  and  _534
REMARK  221  A    between atoms: _534  and  _535
REMARK  222  A    between atoms: _538  and  _540
REMARK  223  A    between atoms: _540  and  _541
REMARK  224  A    between atoms: _543  and  _545
REMARK  225  A    between atoms: _545  and  _546
REMARK  226  A    between atoms: _545  and  _548
REMARK  227  A    between atoms: _548  and  _549
REMARK  228  A    between atoms: _552  and  _554
REMARK  229  A    between atoms: _554  and  _555
REMARK  230  A    between atoms: _554  and  _557
REMARK  231  A    between atoms: _557  and  _558
REMARK  232  A    between atoms: _563  and  _565
REMARK  233  A    between atoms: _565  and  _566
REMARK  234  A    between atoms: _565  and  _568
REMARK  235  A    between atoms: _568  and  _569
REMARK  236  A    between atoms: _572  and  _574
REMARK  237  A    between atoms: _574  and  _575
REMARK  238  A    between atoms: _577  and  _579
REMARK  239  A    between atoms: _579  and  _580
REMARK  240  A    between atoms: _579  and  _582
REMARK  241  A    between atoms: _582  and  _583
REMARK                            x       y       z     vdW  Elec       q    Type
REMARK                         _______ _______ _______ _____ _____    ______ ____
ROOT
ATOM      1  O   HOH     1      -6.239  27.994  17.063  0.00  0.00    +0.000 OA
ENDROOT
TORSDOF 0
REMARK  Name = ../refined-set-2016/1gvw/1gvw_pocket.pdb
REMARK  241 active torsions:
REMARK  status: ('A' for Active; 'I' for Inactive)
REMARK    1  A    between atoms: _1  and  _3
REMARK    2  A    between atoms: _3  and  _4
REMARK    3  A    between atoms: _3  and  _6
REMARK    4  A    between atoms: _6  and  _7
REMARK    5  A    between atoms: _10  and  _12
REMARK    6  A    between atoms: _12  and  _13
REMARK    7  A    between atoms: _12  and  _15
REMARK    8  A    between atoms: _15  and  _16
REMARK    9  A    between atoms: _19  and  _21
REMARK   10  A    between atoms: _21  and  _22
REMARK   11  A    between atoms: _21  and  _24
REMARK   12  A    between atoms: _24  and  _25
REMARK   13  A    between atoms: _28  and  _30
REMARK   14  A    between atoms: _30  and  _31
REMARK   15  A    between atoms: _30  and  _33
REMARK   16  A    between atoms: _33  and  _34
REMARK   17  A    between atoms: _37  and  _39
REMARK   18  A    between atoms: _39  and  _40
REMARK   19  A    between atoms: _39  and  _42
REMARK   20  A    between atoms: _42  and  _43
REMARK   21  A    between atoms: _46  and  _48
REMARK   22  A    between atoms: _48  and  _49
REMARK   23  A    between atoms: _52  and  _54
REMARK   24  A    between atoms: _54  and  _55
REMARK   25  A    between atoms: _54  and  _57
REMARK   26  A    between atoms: _57  and  _58
REMARK   27  A    between atoms: _63  and  _64
REMARK   28  A    between atoms: _66  and  _68
REMARK   29  A    between atoms: _68  and  _69
REMARK   30  A    between atoms: _68  and  _71
REMARK   31  A    between atoms: _71  and  _72
REMARK   32  A    between atoms: _75  and  _77
REMARK   33  A    between atoms: _77  and  _78
REMARK   34  A    between atoms: _77  and  _80
REMARK   35  A    between atoms: _80  and  _81
REMARK   36  A    between atoms: _87  and  _89
REMARK   37  A    between atoms: _89  and  _90
REMARK   38  A    between atoms: _89  and  _92
REMARK   39  A    between atoms: _92  and  _93
REMARK   40  A    between atoms: _96  and  _98
REMARK   41  A    between atoms: _98  and  _99
REMARK   42  A    between atoms: _98  and  _101
REMARK   43  A    between atoms: _101  and  _102
REMARK   44  A    between atoms: _105  and  _107
REMARK   45  A    between atoms: _107  and  _108
REMARK   46  A    between atoms: _110  and  _112
REMARK   47  A    between atoms: _112  and  _113
REMARK   48  A    between atoms: _112  and  _115
REMARK   49  A    between atoms: _115  and  _116
REMARK   50  A    between atoms: _118  and  _120
REMARK   51  A    between atoms: _120  and  _121
REMARK   52  A    between atoms: _120  and  _123
REMARK   53  A    between atoms: _123  and  _124
REMARK   54  A    between atoms: _126  and  _128
REMARK   55  A    between atoms: _128  and  _129
REMARK   56  A    between atoms: _128  and  _131
REMARK   57  A    between atoms: _131  and  _132
REMARK   58  A    between atoms: _135  and  _137
REMARK   59  A    between atoms: _137  and  _138
REMARK   60  A    between atoms: _137  and  _140
REMARK   61  A    between atoms: _140  and  _141
REMARK   62  A    between atoms: _151  and  _153
REMARK   63  A    between atoms: _153  and  _154
REMARK   64  A    between atoms: _153  and  _156
REMARK   65  A    between atoms: _156  and  _157
REMARK   66  A    between atoms: _159  and  _161
REMARK   67  A    between atoms: _161  and  _162
REMARK   68  A    between atoms: _161  and  _164
REMARK   69  A    between atoms: _164  and  _165
REMARK   70  A    between atoms: _168  and  _170
REMARK   71  A    between atoms: _170  and  _171
REMARK   72  A    between atoms: _170  and  _173
REMARK   73  A    between atoms: _173  and  _174
REMARK   74  A    between atoms: _176  and  _178
REMARK   75  A    between atoms: _178  and  _179
REMARK   76  A    between atoms: _178  and  _181
REMARK   77  A    between atoms: _181  and  _182
REMARK   78  A    between atoms: _187  and  _188
REMARK   79  A    between atoms: _190  and  _192
REMARK   80  A    between atoms: _192  and  _193
REMARK   81  A    between atoms: _195  and  _197
REMARK   82  A    between atoms: _197  and  _198
REMARK   83  A    between atoms: _197  and  _200
REMARK   84  A    between atoms: _200  and  _201
REMARK   85  A    between atoms: _204  and  _206
REMARK   86  A    between atoms: _206  and  _207
REMARK   87  A    between atoms: _209  and  _211
REMARK   88  A    between atoms: _211  and  _212
REMARK   89  A    between atoms: _211  and  _214
REMARK   90  A    between atoms: _214  and  _215
REMARK   91  A    between atoms: _217  and  _219
REMARK   92  A    between atoms: _219  and  _220
REMARK   93  A    between atoms: _219  and  _222
REMARK   94  A    between atoms: _222  and  _223
REMARK   95  A    between atoms: _225  and  _227
REMARK   96  A    between atoms: _227  and  _228
REMARK   97  A    between atoms: _227  and  _230
REMARK   98  A    between atoms: _230  and  _231
REMARK   99  A    between atoms: _233  and  _235
REMARK  100  A    between atoms: _235  and  _236
REMARK  101  A    between atoms: _235  and  _238
REMARK  102  A    between atoms: _238  and  _239
REMARK  103  A    between atoms: _245  and  _247
REMARK  104  A    between atoms: _247  and  _248
REMARK  105  A    between atoms: _247  and  _250
REMARK  106  A    between atoms: _250  and  _251
REMARK  107  A    between atoms: _254  and  _256
REMARK  108  A    between atoms: _256  and  _257
REMARK  109  A    between atoms: _256  and  _259
REMARK  110  A    between atoms: _259  and  _260
REMARK  111  A    between atoms: _263  and  _265
REMARK  112  A    between atoms: _265  and  _266
REMARK  113  A    between atoms: _265  and  _268
REMARK  114  A    between atoms: _268  and  _269
REMARK  115  A    between atoms: _272  and  _274
REMARK  116  A    between atoms: _274  and  _275
REMARK  117  A    between atoms: _277  and  _279
REMARK  118  A    between atoms: _279  and  _280
REMARK  119  A    between atoms: _279  and  _282
REMARK  120  A    between atoms: _282  and  _283
REMARK  121  A    between atoms: _286  and  _288
REMARK  122  A    between atoms: _288  and  _289
REMARK  123  A    between atoms: _288  and  _291
REMARK  124  A    between atoms: _291  and  _292
REMARK  125  A    between atoms: _295  and  _297
REMARK  126  A    between atoms: _297  and  _298
REMARK  127  A    between atoms: _300  and  _302
REMARK  128  A    between atoms: _302  and  _303
REMARK  129  A    between atoms: _302  and  _305
REMARK  130  A    between atoms: _305  and  _306
REMARK  131  A    between atoms: _309  and  _311
REMARK  132  A    between atoms: _311  and  _312
REMARK  133  A    between atoms: _315  and  _317
REMARK  134  A    between atoms: _317  and  _318
REMARK  135  A    between atoms: _317  and  _320
REMARK  136  A    between atoms: _320  and  _321
REMARK  137  A    between atoms: _327  and  _329
REMARK  138  A    between atoms: _329  and  _330
REMARK  139  A    between atoms: _329  and  _332
REMARK  140  A    between atoms: _332  and  _333
REMARK  141  A    between atoms: _336  and  _338
REMARK  142  A    between atoms: _338  and  _339
REMARK  143  A    between atoms: _338  and  _341
REMARK  144  A    between atoms: _341  and  _342
REMARK  145  A    between atoms: _345  and  _347
REMARK  146  A    between atoms: _347  and  _348
REMARK  147  A    between atoms: _347  and  _350
REMARK  148  A    between atoms: _350  and  _351
REMARK  149  A    between atoms: _356  and  _358
REMARK  150  A    between atoms: _358  and  _359
REMARK  151  A    between atoms: _358  and  _361
REMARK  152  A    between atoms: _361  and  _362
REMARK  153  A    between atoms: _365  and  _367
REMARK  154  A    between atoms: _367  and  _368
REMARK  155  A    between atoms: _367  and  _370
REMARK  156  A    between atoms: _370  and  _371
REMARK  157  A    between atoms: _371  and  _372
REMARK  158  A    between atoms: _377  and  _379
REMARK  159  A    between atoms: _379  and  _380
REMARK  160  A    between atoms: _382  and  _384
REMARK  161  A    between atoms: _384  and  _385
REMARK  162  A    between atoms: _384  and  _387
REMARK  163  A    between atoms: _387  and  _388
REMARK  164  A    between atoms: _394  and  _396
REMARK  165  A    between atoms: _396  and  _397
REMARK  166  A    between atoms: _396  and  _399
REMARK  167  A    between atoms: _399  and  _400
REMARK  168  A    between atoms: _403  and  _405
REMARK  169  A    between atoms: _405  and  _406
REMARK  170  A    between atoms: _409  and  _411
REMARK  171  A    between atoms: _411  and  _412
REMARK  172  A    between atoms: _411  and  _414
REMARK  173  A    between atoms: _414  and  _415
REMARK  174  A    between atoms: _418  and  _420
REMARK  175  A    between atoms: _420  and  _421
REMARK  176  A    between atoms: _420  and  _423
REMARK  177  A    between atoms: _423  and  _424
REMARK  178  A    between atoms: _427  and  _429
REMARK  179  A    between atoms: _429  and  _430
REMARK  180  A    between atoms: _432  and  _434
REMARK  181  A    between atoms: _434  and  _435
REMARK  182  A    between atoms: _434  and  _437
REMARK  183  A    between atoms: _437  and  _438
REMARK  184  A    between atoms: _441  and  _443
REMARK  185  A    between atoms: _443  and  _444
REMARK  186  A    between atoms: _443  and  _446
REMARK  187  A    between atoms: _446  and  _447
REMARK  188  A    between atoms: _450  and  _452
REMARK  189  A    between atoms: _452  and  _453
REMARK  190  A    between atoms: _452  and  _455
REMARK  191  A    between atoms: _455  and  _456
REMARK  192  A    between atoms: _459  and  _461
REMARK  193  A    between atoms: _461  and  _462
REMARK  194  A    between atoms: _461  and  _464
REMARK  195  A    between atoms: _464  and  _465
REMARK  196  A    between atoms: _470  and  _471
REMARK  197  A    between atoms: _473  and  _475
REMARK  198  A    between atoms: _475  and  _476
REMARK  199  A    between atoms: _478  and  _480
REMARK  200  A    between atoms: _480  and  _481
REMARK  201  A    between atoms: _480  and  _483
REMARK  202  A    between atoms: _483  and  _484
REMARK  203  A    between atoms: _490  and  _492
REMARK  204  A    between atoms: _492  and  _493
REMARK  205  A    between atoms: _492  and  _495
REMARK  206  A    between atoms: _495  and  _496
REMARK  207  A    between atoms: _502  and  _504
REMARK  208  A    between atoms: _504  and  _505
REMARK  209  A    between atoms: _507  and  _509
REMARK  210  A    between atoms: _509  and  _510
REMARK  211  A    between atoms: _512  and  _514
REMARK  212  A    between atoms: _514  and  _515
REMARK  213  A    between atoms: _514  and  _517
REMARK  214  A    between atoms: _517  and  _518
REMARK  215  A    between atoms: _518  and  _519
REMARK  216  A    between atoms: _524  and  _526
REMARK  217  A    between atoms: _526  and  _527
REMARK  218  A    between atoms: _529  and  _531
REMARK  219  A    between atoms: _531  and  _532
REMARK  220  A    between atoms: _531  and  _534
REMARK  221  A    between atoms: _534  and  _535
REMARK  222  A    between atoms: _538  and  _540
REMARK  223  A    between atoms: _540  and  _541
REMARK  224  A    between atoms: _543  and  _545
REMARK  225  A    between atoms: _545  and  _546
REMARK  226  A    between atoms: _545  and  _548
REMARK  227  A    between atoms: _548  and  _549
REMARK  228  A    between atoms: _552  and  _554
REMARK  229  A    between atoms: _554  and  _555
REMARK  230  A    between atoms: _554  and  _557
REMARK  231  A    between atoms: _557  and  _558
REMARK  232  A    between atoms: _563  and  _565
REMARK  233  A    between atoms: _565  and  _566
REMARK  234  A    between atoms: _565  and  _568
REMARK  235  A    between atoms: _568  and  _569
REMARK  236  A    between atoms: _572  and  _574
REMARK  237  A    between atoms: _574  and  _575
REMARK  238  A    between atoms: _577  and  _579
REMARK  239  A    between atoms: _579  and  _580
REMARK  240  A    between atoms: _579  and  _582
REMARK  241  A    between atoms: _582  and  _583
REMARK                            x       y       z     vdW  Elec       q    Type
REMARK                         _______ _______ _______ _____ _____    ______ ____
ROOT
ATOM      1  O   HOH     1       7.095  29.444  26.929  0.00  0.00    +0.000 OA
ENDROOT
TORSDOF 0
REMARK  Name = ../refined-set-2016/1gvw/1gvw_pocket.pdb
REMARK  241 active torsions:
REMARK  status: ('A' for Active; 'I' for Inactive)
REMARK    1  A    between atoms: _1  and  _3
REMARK    2  A    between atoms: _3  and  _4
REMARK    3  A    between atoms: _3  and  _6
REMARK    4  A    between atoms: _6  and  _7
REMARK    5  A    between atoms: _10  and  _12
REMARK    6  A    between atoms: _12  and  _13
REMARK    7  A    between atoms: _12  and  _15
REMARK    8  A    between atoms: _15  and  _16
REMARK    9  A    between atoms: _19  and  _21
REMARK   10  A    between atoms: _21  and  _22
REMARK   11  A    between atoms: _21  and  _24
REMARK   12  A    between atoms: _24  and  _25
REMARK   13  A    between atoms: _28  and  _30
REMARK   14  A    between atoms: _30  and  _31
REMARK   15  A    between atoms: _30  and  _33
REMARK   16  A    between atoms: _33  and  _34
REMARK   17  A    between atoms: _37  and  _39
REMARK   18  A    between atoms: _39  and  _40
REMARK   19  A    between atoms: _39  and  _42
REMARK   20  A    between atoms: _42  and  _43
REMARK   21  A    between atoms: _46  and  _48
REMARK   22  A    between atoms: _48  and  _49
REMARK   23  A    between atoms: _52  and  _54
REMARK   24  A    between atoms: _54  and  _55
REMARK   25  A    between atoms: _54  and  _57
REMARK   26  A    between atoms: _57  and  _58
REMARK   27  A    between atoms: _63  and  _64
REMARK   28  A    between atoms: _66  and  _68
REMARK   29  A    between atoms: _68  and  _69
REMARK   30  A    between atoms: _68  and  _71
REMARK   31  A    between atoms: _71  and  _72
REMARK   32  A    between atoms: _75  and  _77
REMARK   33  A    between atoms: _77  and  _78
REMARK   34  A    between atoms: _77  and  _80
REMARK   35  A    between atoms: _80  and  _81
REMARK   36  A    between atoms: _87  and  _89
REMARK   37  A    between atoms: _89  and  _90
REMARK   38  A    between atoms: _89  and  _92
REMARK   39  A    between atoms: _92  and  _93
REMARK   40  A    between atoms: _96  and  _98
REMARK   41  A    between atoms: _98  and  _99
REMARK   42  A    between atoms: _98  and  _101
REMARK   43  A    between atoms: _101  and  _102
REMARK   44  A    between atoms: _105  and  _107
REMARK   45  A    between atoms: _107  and  _108
REMARK   46  A    between atoms: _110  and  _112
REMARK   47  A    between atoms: _112  and  _113
REMARK   48  A    between atoms: _112  and  _115
REMARK   49  A    between atoms: _115  and  _116
REMARK   50  A    between atoms: _118  and  _120
REMARK   51  A    between atoms: _120  and  _121
REMARK   52  A    between atoms: _120  and  _123
REMARK   53  A    between atoms: _123  and  _124
REMARK   54  A    between atoms: _126  and  _128
REMARK   55  A    between atoms: _128  and  _129
REMARK   56  A    between atoms: _128  and  _131
REMARK   57  A    between atoms: _131  and  _132
REMARK   58  A    between atoms: _135  and  _137
REMARK   59  A    between atoms: _137  and  _138
REMARK   60  A    between atoms: _137  and  _140
REMARK   61  A    between atoms: _140  and  _141
REMARK   62  A    between atoms: _151  and  _153
REMARK   63  A    between atoms: _153  and  _154
REMARK   64  A    between atoms: _153  and  _156
REMARK   65  A    between atoms: _156  and  _157
REMARK   66  A    between atoms: _159  and  _161
REMARK   67  A    between atoms: _161  and  _162
REMARK   68  A    between atoms: _161  and  _164
REMARK   69  A    between atoms: _164  and  _165
REMARK   70  A    between atoms: _168  and  _170
REMARK   71  A    between atoms: _170  and  _171
REMARK   72  A    between atoms: _170  and  _173
REMARK   73  A    between atoms: _173  and  _174
REMARK   74  A    between atoms: _176  and  _178
REMARK   75  A    between atoms: _178  and  _179
REMARK   76  A    between atoms: _178  and  _181
REMARK   77  A    between atoms: _181  and  _182
REMARK   78  A    between atoms: _187  and  _188
REMARK   79  A    between atoms: _190  and  _192
REMARK   80  A    between atoms: _192  and  _193
REMARK   81  A    between atoms: _195  and  _197
REMARK   82  A    between atoms: _197  and  _198
REMARK   83  A    between atoms: _197  and  _200
REMARK   84  A    between atoms: _200  and  _201
REMARK   85  A    between atoms: _204  and  _206
REMARK   86  A    between atoms: _206  and  _207
REMARK   87  A    between atoms: _209  and  _211
REMARK   88  A    between atoms: _211  and  _212
REMARK   89  A    between atoms: _211  and  _214
REMARK   90  A    between atoms: _214  and  _215
REMARK   91  A    between atoms: _217  and  _219
REMARK   92  A    between atoms: _219  and  _220
REMARK   93  A    between atoms: _219  and  _222
REMARK   94  A    between atoms: _222  and  _223
REMARK   95  A    between atoms: _225  and  _227
REMARK   96  A    between atoms: _227  and  _228
REMARK   97  A    between atoms: _227  and  _230
REMARK   98  A    between atoms: _230  and  _231
REMARK   99  A    between atoms: _233  and  _235
REMARK  100  A    between atoms: _235  and  _236
REMARK  101  A    between atoms: _235  and  _238
REMARK  102  A    between atoms: _238  and  _239
REMARK  103  A    between atoms: _245  and  _247
REMARK  104  A    between atoms: _247  and  _248
REMARK  105  A    between atoms: _247  and  _250
REMARK  106  A    between atoms: _250  and  _251
REMARK  107  A    between atoms: _254  and  _256
REMARK  108  A    between atoms: _256  and  _257
REMARK  109  A    between atoms: _256  and  _259
REMARK  110  A    between atoms: _259  and  _260
REMARK  111  A    between atoms: _263  and  _265
REMARK  112  A    between atoms: _265  and  _266
REMARK  113  A    between atoms: _265  and  _268
REMARK  114  A    between atoms: _268  and  _269
REMARK  115  A    between atoms: _272  and  _274
REMARK  116  A    between atoms: _274  and  _275
REMARK  117  A    between atoms: _277  and  _279
REMARK  118  A    between atoms: _279  and  _280
REMARK  119  A    between atoms: _279  and  _282
REMARK  120  A    between atoms: _282  and  _283
REMARK  121  A    between atoms: _286  and  _288
REMARK  122  A    between atoms: _288  and  _289
REMARK  123  A    between atoms: _288  and  _291
REMARK  124  A    between atoms: _291  and  _292
REMARK  125  A    between atoms: _295  and  _297
REMARK  126  A    between atoms: _297  and  _298
REMARK  127  A    between atoms: _300  and  _302
REMARK  128  A    between atoms: _302  and  _303
REMARK  129  A    between atoms: _302  and  _305
REMARK  130  A    between atoms: _305  and  _306
REMARK  131  A    between atoms: _309  and  _311
REMARK  132  A    between atoms: _311  and  _312
REMARK  133  A    between atoms: _315  and  _317
REMARK  134  A    between atoms: _317  and  _318
REMARK  135  A    between atoms: _317  and  _320
REMARK  136  A    between atoms: _320  and  _321
REMARK  137  A    between atoms: _327  and  _329
REMARK  138  A    between atoms: _329  and  _330
REMARK  139  A    between atoms: _329  and  _332
REMARK  140  A    between atoms: _332  and  _333
REMARK  141  A    between atoms: _336  and  _338
REMARK  142  A    between atoms: _338  and  _339
REMARK  143  A    between atoms: _338  and  _341
REMARK  144  A    between atoms: _341  and  _342
REMARK  145  A    between atoms: _345  and  _347
REMARK  146  A    between atoms: _347  and  _348
REMARK  147  A    between atoms: _347  and  _350
REMARK  148  A    between atoms: _350  and  _351
REMARK  149  A    between atoms: _356  and  _358
REMARK  150  A    between atoms: _358  and  _359
REMARK  151  A    between atoms: _358  and  _361
REMARK  152  A    between atoms: _361  and  _362
REMARK  153  A    between atoms: _365  and  _367
REMARK  154  A    between atoms: _367  and  _368
REMARK  155  A    between atoms: _367  and  _370
REMARK  156  A    between atoms: _370  and  _371
REMARK  157  A    between atoms: _371  and  _372
REMARK  158  A    between atoms: _377  and  _379
REMARK  159  A    between atoms: _379  and  _380
REMARK  160  A    between atoms: _382  and  _384
REMARK  161  A    between atoms: _384  and  _385
REMARK  162  A    between atoms: _384  and  _387
REMARK  163  A    between atoms: _387  and  _388
REMARK  164  A    between atoms: _394  and  _396
REMARK  165  A    between atoms: _396  and  _397
REMARK  166  A    between atoms: _396  and  _399
REMARK  167  A    between atoms: _399  and  _400
REMARK  168  A    between atoms: _403  and  _405
REMARK  169  A    between atoms: _405  and  _406
REMARK  170  A    between atoms: _409  and  _411
REMARK  171  A    between atoms: _411  and  _412
REMARK  172  A    between atoms: _411  and  _414
REMARK  173  A    between atoms: _414  and  _415
REMARK  174  A    between atoms: _418  and  _420
REMARK  175  A    between atoms: _420  and  _421
REMARK  176  A    between atoms: _420  and  _423
REMARK  177  A    between atoms: _423  and  _424
REMARK  178  A    between atoms: _427  and  _429
REMARK  179  A    between atoms: _429  and  _430
REMARK  180  A    between atoms: _432  and  _434
REMARK  181  A    between atoms: _434  and  _435
REMARK  182  A    between atoms: _434  and  _437
REMARK  183  A    between atoms: _437  and  _438
REMARK  184  A    between atoms: _441  and  _443
REMARK  185  A    between atoms: _443  and  _444
REMARK  186  A    between atoms: _443  and  _446
REMARK  187  A    between atoms: _446  and  _447
REMARK  188  A    between atoms: _450  and  _452
REMARK  189  A    between atoms: _452  and  _453
REMARK  190  A    between atoms: _452  and  _455
REMARK  191  A    between atoms: _455  and  _456
REMARK  192  A    between atoms: _459  and  _461
REMARK  193  A    between atoms: _461  and  _462
REMARK  194  A    between atoms: _461  and  _464
REMARK  195  A    between atoms: _464  and  _465
REMARK  196  A    between atoms: _470  and  _471
REMARK  197  A    between atoms: _473  and  _475
REMARK  198  A    between atoms: _475  and  _476
REMARK  199  A    between atoms: _478  and  _480
REMARK  200  A    between atoms: _480  and  _481
REMARK  201  A    between atoms: _480  and  _483
REMARK  202  A    between atoms: _483  and  _484
REMARK  203  A    between atoms: _490  and  _492
REMARK  204  A    between atoms: _492  and  _493
REMARK  205  A    between atoms: _492  and  _495
REMARK  206  A    between atoms: _495  and  _496
REMARK  207  A    between atoms: _502  and  _504
REMARK  208  A    between atoms: _504  and  _505
REMARK  209  A    between atoms: _507  and  _509
REMARK  210  A    between atoms: _509  and  _510
REMARK  211  A    between atoms: _512  and  _514
REMARK  212  A    between atoms: _514  and  _515
REMARK  213  A    between atoms: _514  and  _517
REMARK  214  A    between atoms: _517  and  _518
REMARK  215  A    between atoms: _518  and  _519
REMARK  216  A    between atoms: _524  and  _526
REMARK  217  A    between atoms: _526  and  _527
REMARK  218  A    between atoms: _529  and  _531
REMARK  219  A    between atoms: _531  and  _532
REMARK  220  A    between atoms: _531  and  _534
REMARK  221  A    between atoms: _534  and  _535
REMARK  222  A    between atoms: _538  and  _540
REMARK  223  A    between atoms: _540  and  _541
REMARK  224  A    between atoms: _543  and  _545
REMARK  225  A    between atoms: _545  and  _546
REMARK  226  A    between atoms: _545  and  _548
REMARK  227  A    between atoms: _548  and  _549
REMARK  228  A    between atoms: _552  and  _554
REMARK  229  A    between atoms: _554  and  _555
REMARK  230  A    between atoms: _554  and  _557
REMARK  231  A    between atoms: _557  and  _558
REMARK  232  A    between atoms: _563  and  _565
REMARK  233  A    between atoms: _565  and  _566
REMARK  234  A    between atoms: _565  and  _568
REMARK  235  A    between atoms: _568  and  _569
REMARK  236  A    between atoms: _572  and  _574
REMARK  237  A    between atoms: _574  and  _575
REMARK  238  A    between atoms: _577  and  _579
REMARK  239  A    between atoms: _579  and  _580
REMARK  240  A    between atoms: _579  and  _582
REMARK  241  A    between atoms: _582  and  _583
REMARK                            x       y       z     vdW  Elec       q    Type
REMARK                         _______ _______ _______ _____ _____    ______ ____
ROOT
ATOM      1  O   HOH     1       8.138  31.562  22.873  0.00  0.00    +0.000 OA
ENDROOT
TORSDOF 0
REMARK  Name = ../refined-set-2016/1gvw/1gvw_pocket.pdb
REMARK  241 active torsions:
REMARK  status: ('A' for Active; 'I' for Inactive)
REMARK    1  A    between atoms: _1  and  _3
REMARK    2  A    between atoms: _3  and  _4
REMARK    3  A    between atoms: _3  and  _6
REMARK    4  A    between atoms: _6  and  _7
REMARK    5  A    between atoms: _10  and  _12
REMARK    6  A    between atoms: _12  and  _13
REMARK    7  A    between atoms: _12  and  _15
REMARK    8  A    between atoms: _15  and  _16
REMARK    9  A    between atoms: _19  and  _21
REMARK   10  A    between atoms: _21  and  _22
REMARK   11  A    between atoms: _21  and  _24
REMARK   12  A    between atoms: _24  and  _25
REMARK   13  A    between atoms: _28  and  _30
REMARK   14  A    between atoms: _30  and  _31
REMARK   15  A    between atoms: _30  and  _33
REMARK   16  A    between atoms: _33  and  _34
REMARK   17  A    between atoms: _37  and  _39
REMARK   18  A    between atoms: _39  and  _40
REMARK   19  A    between atoms: _39  and  _42
REMARK   20  A    between atoms: _42  and  _43
REMARK   21  A    between atoms: _46  and  _48
REMARK   22  A    between atoms: _48  and  _49
REMARK   23  A    between atoms: _52  and  _54
REMARK   24  A    between atoms: _54  and  _55
REMARK   25  A    between atoms: _54  and  _57
REMARK   26  A    between atoms: _57  and  _58
REMARK   27  A    between atoms: _63  and  _64
REMARK   28  A    between atoms: _66  and  _68
REMARK   29  A    between atoms: _68  and  _69
REMARK   30  A    between atoms: _68  and  _71
REMARK   31  A    between atoms: _71  and  _72
REMARK   32  A    between atoms: _75  and  _77
REMARK   33  A    between atoms: _77  and  _78
REMARK   34  A    between atoms: _77  and  _80
REMARK   35  A    between atoms: _80  and  _81
REMARK   36  A    between atoms: _87  and  _89
REMARK   37  A    between atoms: _89  and  _90
REMARK   38  A    between atoms: _89  and  _92
REMARK   39  A    between atoms: _92  and  _93
REMARK   40  A    between atoms: _96  and  _98
REMARK   41  A    between atoms: _98  and  _99
REMARK   42  A    between atoms: _98  and  _101
REMARK   43  A    between atoms: _101  and  _102
REMARK   44  A    between atoms: _105  and  _107
REMARK   45  A    between atoms: _107  and  _108
REMARK   46  A    between atoms: _110  and  _112
REMARK   47  A    between atoms: _112  and  _113
REMARK   48  A    between atoms: _112  and  _115
REMARK   49  A    between atoms: _115  and  _116
REMARK   50  A    between atoms: _118  and  _120
REMARK   51  A    between atoms: _120  and  _121
REMARK   52  A    between atoms: _120  and  _123
REMARK   53  A    between atoms: _123  and  _124
REMARK   54  A    between atoms: _126  and  _128
REMARK   55  A    between atoms: _128  and  _129
REMARK   56  A    between atoms: _128  and  _131
REMARK   57  A    between atoms: _131  and  _132
REMARK   58  A    between atoms: _135  and  _137
REMARK   59  A    between atoms: _137  and  _138
REMARK   60  A    between atoms: _137  and  _140
REMARK   61  A    between atoms: _140  and  _141
REMARK   62  A    between atoms: _151  and  _153
REMARK   63  A    between atoms: _153  and  _154
REMARK   64  A    between atoms: _153  and  _156
REMARK   65  A    between atoms: _156  and  _157
REMARK   66  A    between atoms: _159  and  _161
REMARK   67  A    between atoms: _161  and  _162
REMARK   68  A    between atoms: _161  and  _164
REMARK   69  A    between atoms: _164  and  _165
REMARK   70  A    between atoms: _168  and  _170
REMARK   71  A    between atoms: _170  and  _171
REMARK   72  A    between atoms: _170  and  _173
REMARK   73  A    between atoms: _173  and  _174
REMARK   74  A    between atoms: _176  and  _178
REMARK   75  A    between atoms: _178  and  _179
REMARK   76  A    between atoms: _178  and  _181
REMARK   77  A    between atoms: _181  and  _182
REMARK   78  A    between atoms: _187  and  _188
REMARK   79  A    between atoms: _190  and  _192
REMARK   80  A    between atoms: _192  and  _193
REMARK   81  A    between atoms: _195  and  _197
REMARK   82  A    between atoms: _197  and  _198
REMARK   83  A    between atoms: _197  and  _200
REMARK   84  A    between atoms: _200  and  _201
REMARK   85  A    between atoms: _204  and  _206
REMARK   86  A    between atoms: _206  and  _207
REMARK   87  A    between atoms: _209  and  _211
REMARK   88  A    between atoms: _211  and  _212
REMARK   89  A    between atoms: _211  and  _214
REMARK   90  A    between atoms: _214  and  _215
REMARK   91  A    between atoms: _217  and  _219
REMARK   92  A    between atoms: _219  and  _220
REMARK   93  A    between atoms: _219  and  _222
REMARK   94  A    between atoms: _222  and  _223
REMARK   95  A    between atoms: _225  and  _227
REMARK   96  A    between atoms: _227  and  _228
REMARK   97  A    between atoms: _227  and  _230
REMARK   98  A    between atoms: _230  and  _231
REMARK   99  A    between atoms: _233  and  _235
REMARK  100  A    between atoms: _235  and  _236
REMARK  101  A    between atoms: _235  and  _238
REMARK  102  A    between atoms: _238  and  _239
REMARK  103  A    between atoms: _245  and  _247
REMARK  104  A    between atoms: _247  and  _248
REMARK  105  A    between atoms: _247  and  _250
REMARK  106  A    between atoms: _250  and  _251
REMARK  107  A    between atoms: _254  and  _256
REMARK  108  A    between atoms: _256  and  _257
REMARK  109  A    between atoms: _256  and  _259
REMARK  110  A    between atoms: _259  and  _260
REMARK  111  A    between atoms: _263  and  _265
REMARK  112  A    between atoms: _265  and  _266
REMARK  113  A    between atoms: _265  and  _268
REMARK  114  A    between atoms: _268  and  _269
REMARK  115  A    between atoms: _272  and  _274
REMARK  116  A    between atoms: _274  and  _275
REMARK  117  A    between atoms: _277  and  _279
REMARK  118  A    between atoms: _279  and  _280
REMARK  119  A    between atoms: _279  and  _282
REMARK  120  A    between atoms: _282  and  _283
REMARK  121  A    between atoms: _286  and  _288
REMARK  122  A    between atoms: _288  and  _289
REMARK  123  A    between atoms: _288  and  _291
REMARK  124  A    between atoms: _291  and  _292
REMARK  125  A    between atoms: _295  and  _297
REMARK  126  A    between atoms: _297  and  _298
REMARK  127  A    between atoms: _300  and  _302
REMARK  128  A    between atoms: _302  and  _303
REMARK  129  A    between atoms: _302  and  _305
REMARK  130  A    between atoms: _305  and  _306
REMARK  131  A    between atoms: _309  and  _311
REMARK  132  A    between atoms: _311  and  _312
REMARK  133  A    between atoms: _315  and  _317
REMARK  134  A    between atoms: _317  and  _318
REMARK  135  A    between atoms: _317  and  _320
REMARK  136  A    between atoms: _320  and  _321
REMARK  137  A    between atoms: _327  and  _329
REMARK  138  A    between atoms: _329  and  _330
REMARK  139  A    between atoms: _329  and  _332
REMARK  140  A    between atoms: _332  and  _333
REMARK  141  A    between atoms: _336  and  _338
REMARK  142  A    between atoms: _338  and  _339
REMARK  143  A    between atoms: _338  and  _341
REMARK  144  A    between atoms: _341  and  _342
REMARK  145  A    between atoms: _345  and  _347
REMARK  146  A    between atoms: _347  and  _348
REMARK  147  A    between atoms: _347  and  _350
REMARK  148  A    between atoms: _350  and  _351
REMARK  149  A    between atoms: _356  and  _358
REMARK  150  A    between atoms: _358  and  _359
REMARK  151  A    between atoms: _358  and  _361
REMARK  152  A    between atoms: _361  and  _362
REMARK  153  A    between atoms: _365  and  _367
REMARK  154  A    between atoms: _367  and  _368
REMARK  155  A    between atoms: _367  and  _370
REMARK  156  A    between atoms: _370  and  _371
REMARK  157  A    between atoms: _371  and  _372
REMARK  158  A    between atoms: _377  and  _379
REMARK  159  A    between atoms: _379  and  _380
REMARK  160  A    between atoms: _382  and  _384
REMARK  161  A    between atoms: _384  and  _385
REMARK  162  A    between atoms: _384  and  _387
REMARK  163  A    between atoms: _387  and  _388
REMARK  164  A    between atoms: _394  and  _396
REMARK  165  A    between atoms: _396  and  _397
REMARK  166  A    between atoms: _396  and  _399
REMARK  167  A    between atoms: _399  and  _400
REMARK  168  A    between atoms: _403  and  _405
REMARK  169  A    between atoms: _405  and  _406
REMARK  170  A    between atoms: _409  and  _411
REMARK  171  A    between atoms: _411  and  _412
REMARK  172  A    between atoms: _411  and  _414
REMARK  173  A    between atoms: _414  and  _415
REMARK  174  A    between atoms: _418  and  _420
REMARK  175  A    between atoms: _420  and  _421
REMARK  176  A    between atoms: _420  and  _423
REMARK  177  A    between atoms: _423  and  _424
REMARK  178  A    between atoms: _427  and  _429
REMARK  179  A    between atoms: _429  and  _430
REMARK  180  A    between atoms: _432  and  _434
REMARK  181  A    between atoms: _434  and  _435
REMARK  182  A    between atoms: _434  and  _437
REMARK  183  A    between atoms: _437  and  _438
REMARK  184  A    between atoms: _441  and  _443
REMARK  185  A    between atoms: _443  and  _444
REMARK  186  A    between atoms: _443  and  _446
REMARK  187  A    between atoms: _446  and  _447
REMARK  188  A    between atoms: _450  and  _452
REMARK  189  A    between atoms: _452  and  _453
REMARK  190  A    between atoms: _452  and  _455
REMARK  191  A    between atoms: _455  and  _456
REMARK  192  A    between atoms: _459  and  _461
REMARK  193  A    between atoms: _461  and  _462
REMARK  194  A    between atoms: _461  and  _464
REMARK  195  A    between atoms: _464  and  _465
REMARK  196  A    between atoms: _470  and  _471
REMARK  197  A    between atoms: _473  and  _475
REMARK  198  A    between atoms: _475  and  _476
REMARK  199  A    between atoms: _478  and  _480
REMARK  200  A    between atoms: _480  and  _481
REMARK  201  A    between atoms: _480  and  _483
REMARK  202  A    between atoms: _483  and  _484
REMARK  203  A    between atoms: _490  and  _492
REMARK  204  A    between atoms: _492  and  _493
REMARK  205  A    between atoms: _492  and  _495
REMARK  206  A    between atoms: _495  and  _496
REMARK  207  A    between atoms: _502  and  _504
REMARK  208  A    between atoms: _504  and  _505
REMARK  209  A    between atoms: _507  and  _509
REMARK  210  A    between atoms: _509  and  _510
REMARK  211  A    between atoms: _512  and  _514
REMARK  212  A    between atoms: _514  and  _515
REMARK  213  A    between atoms: _514  and  _517
REMARK  214  A    between atoms: _517  and  _518
REMARK  215  A    between atoms: _518  and  _519
REMARK  216  A    between atoms: _524  and  _526
REMARK  217  A    between atoms: _526  and  _527
REMARK  218  A    between atoms: _529  and  _531
REMARK  219  A    between atoms: _531  and  _532
REMARK  220  A    between atoms: _531  and  _534
REMARK  221  A    between atoms: _534  and  _535
REMARK  222  A    between atoms: _538  and  _540
REMARK  223  A    between atoms: _540  and  _541
REMARK  224  A    between atoms: _543  and  _545
REMARK  225  A    between atoms: _545  and  _546
REMARK  226  A    between atoms: _545  and  _548
REMARK  227  A    between atoms: _548  and  _549
REMARK  228  A    between atoms: _552  and  _554
REMARK  229  A    between atoms: _554  and  _555
REMARK  230  A    between atoms: _554  and  _557
REMARK  231  A    between atoms: _557  and  _558
REMARK  232  A    between atoms: _563  and  _565
REMARK  233  A    between atoms: _565  and  _566
REMARK  234  A    between atoms: _565  and  _568
REMARK  235  A    between atoms: _568  and  _569
REMARK  236  A    between atoms: _572  and  _574
REMARK  237  A    between atoms: _574  and  _575
REMARK  238  A    between atoms: _577  and  _579
REMARK  239  A    between atoms: _579  and  _580
REMARK  240  A    between atoms: _579  and  _582
REMARK  241  A    between atoms: _582  and  _583
REMARK                            x       y       z     vdW  Elec       q    Type
REMARK                         _______ _______ _______ _____ _____    ______ ____
ROOT
ATOM      1  O   HOH     1      10.647  31.301  22.776  0.00  0.00    +0.000 OA
ENDROOT
TORSDOF 0
REMARK  Name = ../refined-set-2016/1gvw/1gvw_pocket.pdb
REMARK  241 active torsions:
REMARK  status: ('A' for Active; 'I' for Inactive)
REMARK    1  A    between atoms: _1  and  _3
REMARK    2  A    between atoms: _3  and  _4
REMARK    3  A    between atoms: _3  and  _6
REMARK    4  A    between atoms: _6  and  _7
REMARK    5  A    between atoms: _10  and  _12
REMARK    6  A    between atoms: _12  and  _13
REMARK    7  A    between atoms: _12  and  _15
REMARK    8  A    between atoms: _15  and  _16
REMARK    9  A    between atoms: _19  and  _21
REMARK   10  A    between atoms: _21  and  _22
REMARK   11  A    between atoms: _21  and  _24
REMARK   12  A    between atoms: _24  and  _25
REMARK   13  A    between atoms: _28  and  _30
REMARK   14  A    between atoms: _30  and  _31
REMARK   15  A    between atoms: _30  and  _33
REMARK   16  A    between atoms: _33  and  _34
REMARK   17  A    between atoms: _37  and  _39
REMARK   18  A    between atoms: _39  and  _40
REMARK   19  A    between atoms: _39  and  _42
REMARK   20  A    between atoms: _42  and  _43
REMARK   21  A    between atoms: _46  and  _48
REMARK   22  A    between atoms: _48  and  _49
REMARK   23  A    between atoms: _52  and  _54
REMARK   24  A    between atoms: _54  and  _55
REMARK   25  A    between atoms: _54  and  _57
REMARK   26  A    between atoms: _57  and  _58
REMARK   27  A    between atoms: _63  and  _64
REMARK   28  A    between atoms: _66  and  _68
REMARK   29  A    between atoms: _68  and  _69
REMARK   30  A    between atoms: _68  and  _71
REMARK   31  A    between atoms: _71  and  _72
REMARK   32  A    between atoms: _75  and  _77
REMARK   33  A    between atoms: _77  and  _78
REMARK   34  A    between atoms: _77  and  _80
REMARK   35  A    between atoms: _80  and  _81
REMARK   36  A    between atoms: _87  and  _89
REMARK   37  A    between atoms: _89  and  _90
REMARK   38  A    between atoms: _89  and  _92
REMARK   39  A    between atoms: _92  and  _93
REMARK   40  A    between atoms: _96  and  _98
REMARK   41  A    between atoms: _98  and  _99
REMARK   42  A    between atoms: _98  and  _101
REMARK   43  A    between atoms: _101  and  _102
REMARK   44  A    between atoms: _105  and  _107
REMARK   45  A    between atoms: _107  and  _108
REMARK   46  A    between atoms: _110  and  _112
REMARK   47  A    between atoms: _112  and  _113
REMARK   48  A    between atoms: _112  and  _115
REMARK   49  A    between atoms: _115  and  _116
REMARK   50  A    between atoms: _118  and  _120
REMARK   51  A    between atoms: _120  and  _121
REMARK   52  A    between atoms: _120  and  _123
REMARK   53  A    between atoms: _123  and  _124
REMARK   54  A    between atoms: _126  and  _128
REMARK   55  A    between atoms: _128  and  _129
REMARK   56  A    between atoms: _128  and  _131
REMARK   57  A    between atoms: _131  and  _132
REMARK   58  A    between atoms: _135  and  _137
REMARK   59  A    between atoms: _137  and  _138
REMARK   60  A    between atoms: _137  and  _140
REMARK   61  A    between atoms: _140  and  _141
REMARK   62  A    between atoms: _151  and  _153
REMARK   63  A    between atoms: _153  and  _154
REMARK   64  A    between atoms: _153  and  _156
REMARK   65  A    between atoms: _156  and  _157
REMARK   66  A    between atoms: _159  and  _161
REMARK   67  A    between atoms: _161  and  _162
REMARK   68  A    between atoms: _161  and  _164
REMARK   69  A    between atoms: _164  and  _165
REMARK   70  A    between atoms: _168  and  _170
REMARK   71  A    between atoms: _170  and  _171
REMARK   72  A    between atoms: _170  and  _173
REMARK   73  A    between atoms: _173  and  _174
REMARK   74  A    between atoms: _176  and  _178
REMARK   75  A    between atoms: _178  and  _179
REMARK   76  A    between atoms: _178  and  _181
REMARK   77  A    between atoms: _181  and  _182
REMARK   78  A    between atoms: _187  and  _188
REMARK   79  A    between atoms: _190  and  _192
REMARK   80  A    between atoms: _192  and  _193
REMARK   81  A    between atoms: _195  and  _197
REMARK   82  A    between atoms: _197  and  _198
REMARK   83  A    between atoms: _197  and  _200
REMARK   84  A    between atoms: _200  and  _201
REMARK   85  A    between atoms: _204  and  _206
REMARK   86  A    between atoms: _206  and  _207
REMARK   87  A    between atoms: _209  and  _211
REMARK   88  A    between atoms: _211  and  _212
REMARK   89  A    between atoms: _211  and  _214
REMARK   90  A    between atoms: _214  and  _215
REMARK   91  A    between atoms: _217  and  _219
REMARK   92  A    between atoms: _219  and  _220
REMARK   93  A    between atoms: _219  and  _222
REMARK   94  A    between atoms: _222  and  _223
REMARK   95  A    between atoms: _225  and  _227
REMARK   96  A    between atoms: _227  and  _228
REMARK   97  A    between atoms: _227  and  _230
REMARK   98  A    between atoms: _230  and  _231
REMARK   99  A    between atoms: _233  and  _235
REMARK  100  A    between atoms: _235  and  _236
REMARK  101  A    between atoms: _235  and  _238
REMARK  102  A    between atoms: _238  and  _239
REMARK  103  A    between atoms: _245  and  _247
REMARK  104  A    between atoms: _247  and  _248
REMARK  105  A    between atoms: _247  and  _250
REMARK  106  A    between atoms: _250  and  _251
REMARK  107  A    between atoms: _254  and  _256
REMARK  108  A    between atoms: _256  and  _257
REMARK  109  A    between atoms: _256  and  _259
REMARK  110  A    between atoms: _259  and  _260
REMARK  111  A    between atoms: _263  and  _265
REMARK  112  A    between atoms: _265  and  _266
REMARK  113  A    between atoms: _265  and  _268
REMARK  114  A    between atoms: _268  and  _269
REMARK  115  A    between atoms: _272  and  _274
REMARK  116  A    between atoms: _274  and  _275
REMARK  117  A    between atoms: _277  and  _279
REMARK  118  A    between atoms: _279  and  _280
REMARK  119  A    between atoms: _279  and  _282
REMARK  120  A    between atoms: _282  and  _283
REMARK  121  A    between atoms: _286  and  _288
REMARK  122  A    between atoms: _288  and  _289
REMARK  123  A    between atoms: _288  and  _291
REMARK  124  A    between atoms: _291  and  _292
REMARK  125  A    between atoms: _295  and  _297
REMARK  126  A    between atoms: _297  and  _298
REMARK  127  A    between atoms: _300  and  _302
REMARK  128  A    between atoms: _302  and  _303
REMARK  129  A    between atoms: _302  and  _305
REMARK  130  A    between atoms: _305  and  _306
REMARK  131  A    between atoms: _309  and  _311
REMARK  132  A    between atoms: _311  and  _312
REMARK  133  A    between atoms: _315  and  _317
REMARK  134  A    between atoms: _317  and  _318
REMARK  135  A    between atoms: _317  and  _320
REMARK  136  A    between atoms: _320  and  _321
REMARK  137  A    between atoms: _327  and  _329
REMARK  138  A    between atoms: _329  and  _330
REMARK  139  A    between atoms: _329  and  _332
REMARK  140  A    between atoms: _332  and  _333
REMARK  141  A    between atoms: _336  and  _338
REMARK  142  A    between atoms: _338  and  _339
REMARK  143  A    between atoms: _338  and  _341
REMARK  144  A    between atoms: _341  and  _342
REMARK  145  A    between atoms: _345  and  _347
REMARK  146  A    between atoms: _347  and  _348
REMARK  147  A    between atoms: _347  and  _350
REMARK  148  A    between atoms: _350  and  _351
REMARK  149  A    between atoms: _356  and  _358
REMARK  150  A    between atoms: _358  and  _359
REMARK  151  A    between atoms: _358  and  _361
REMARK  152  A    between atoms: _361  and  _362
REMARK  153  A    between atoms: _365  and  _367
REMARK  154  A    between atoms: _367  and  _368
REMARK  155  A    between atoms: _367  and  _370
REMARK  156  A    between atoms: _370  and  _371
REMARK  157  A    between atoms: _371  and  _372
REMARK  158  A    between atoms: _377  and  _379
REMARK  159  A    between atoms: _379  and  _380
REMARK  160  A    between atoms: _382  and  _384
REMARK  161  A    between atoms: _384  and  _385
REMARK  162  A    between atoms: _384  and  _387
REMARK  163  A    between atoms: _387  and  _388
REMARK  164  A    between atoms: _394  and  _396
REMARK  165  A    between atoms: _396  and  _397
REMARK  166  A    between atoms: _396  and  _399
REMARK  167  A    between atoms: _399  and  _400
REMARK  168  A    between atoms: _403  and  _405
REMARK  169  A    between atoms: _405  and  _406
REMARK  170  A    between atoms: _409  and  _411
REMARK  171  A    between atoms: _411  and  _412
REMARK  172  A    between atoms: _411  and  _414
REMARK  173  A    between atoms: _414  and  _415
REMARK  174  A    between atoms: _418  and  _420
REMARK  175  A    between atoms: _420  and  _421
REMARK  176  A    between atoms: _420  and  _423
REMARK  177  A    between atoms: _423  and  _424
REMARK  178  A    between atoms: _427  and  _429
REMARK  179  A    between atoms: _429  and  _430
REMARK  180  A    between atoms: _432  and  _434
REMARK  181  A    between atoms: _434  and  _435
REMARK  182  A    between atoms: _434  and  _437
REMARK  183  A    between atoms: _437  and  _438
REMARK  184  A    between atoms: _441  and  _443
REMARK  185  A    between atoms: _443  and  _444
REMARK  186  A    between atoms: _443  and  _446
REMARK  187  A    between atoms: _446  and  _447
REMARK  188  A    between atoms: _450  and  _452
REMARK  189  A    between atoms: _452  and  _453
REMARK  190  A    between atoms: _452  and  _455
REMARK  191  A    between atoms: _455  and  _456
REMARK  192  A    between atoms: _459  and  _461
REMARK  193  A    between atoms: _461  and  _462
REMARK  194  A    between atoms: _461  and  _464
REMARK  195  A    between atoms: _464  and  _465
REMARK  196  A    between atoms: _470  and  _471
REMARK  197  A    between atoms: _473  and  _475
REMARK  198  A    between atoms: _475  and  _476
REMARK  199  A    between atoms: _478  and  _480
REMARK  200  A    between atoms: _480  and  _481
REMARK  201  A    between atoms: _480  and  _483
REMARK  202  A    between atoms: _483  and  _484
REMARK  203  A    between atoms: _490  and  _492
REMARK  204  A    between atoms: _492  and  _493
REMARK  205  A    between atoms: _492  and  _495
REMARK  206  A    between atoms: _495  and  _496
REMARK  207  A    between atoms: _502  and  _504
REMARK  208  A    between atoms: _504  and  _505
REMARK  209  A    between atoms: _507  and  _509
REMARK  210  A    between atoms: _509  and  _510
REMARK  211  A    between atoms: _512  and  _514
REMARK  212  A    between atoms: _514  and  _515
REMARK  213  A    between atoms: _514  and  _517
REMARK  214  A    between atoms: _517  and  _518
REMARK  215  A    between atoms: _518  and  _519
REMARK  216  A    between atoms: _524  and  _526
REMARK  217  A    between atoms: _526  and  _527
REMARK  218  A    between atoms: _529  and  _531
REMARK  219  A    between atoms: _531  and  _532
REMARK  220  A    between atoms: _531  and  _534
REMARK  221  A    between atoms: _534  and  _535
REMARK  222  A    between atoms: _538  and  _540
REMARK  223  A    between atoms: _540  and  _541
REMARK  224  A    between atoms: _543  and  _545
REMARK  225  A    between atoms: _545  and  _546
REMARK  226  A    between atoms: _545  and  _548
REMARK  227  A    between atoms: _548  and  _549
REMARK  228  A    between atoms: _552  and  _554
REMARK  229  A    between atoms: _554  and  _555
REMARK  230  A    between atoms: _554  and  _557
REMARK  231  A    between atoms: _557  and  _558
REMARK  232  A    between atoms: _563  and  _565
REMARK  233  A    between atoms: _565  and  _566
REMARK  234  A    between atoms: _565  and  _568
REMARK  235  A    between atoms: _568  and  _569
REMARK  236  A    between atoms: _572  and  _574
REMARK  237  A    between atoms: _574  and  _575
REMARK  238  A    between atoms: _577  and  _579
REMARK  239  A    between atoms: _579  and  _580
REMARK  240  A    between atoms: _579  and  _582
REMARK  241  A    between atoms: _582  and  _583
REMARK                            x       y       z     vdW  Elec       q    Type
REMARK                         _______ _______ _______ _____ _____    ______ ____
ROOT
ATOM      1  O   HOH     1      12.941  32.798  23.890  0.00  0.00    +0.000 OA
ENDROOT
TORSDOF 0
REMARK  Name = ../refined-set-2016/1gvw/1gvw_pocket.pdb
REMARK  241 active torsions:
REMARK  status: ('A' for Active; 'I' for Inactive)
REMARK    1  A    between atoms: _1  and  _3
REMARK    2  A    between atoms: _3  and  _4
REMARK    3  A    between atoms: _3  and  _6
REMARK    4  A    between atoms: _6  and  _7
REMARK    5  A    between atoms: _10  and  _12
REMARK    6  A    between atoms: _12  and  _13
REMARK    7  A    between atoms: _12  and  _15
REMARK    8  A    between atoms: _15  and  _16
REMARK    9  A    between atoms: _19  and  _21
REMARK   10  A    between atoms: _21  and  _22
REMARK   11  A    between atoms: _21  and  _24
REMARK   12  A    between atoms: _24  and  _25
REMARK   13  A    between atoms: _28  and  _30
REMARK   14  A    between atoms: _30  and  _31
REMARK   15  A    between atoms: _30  and  _33
REMARK   16  A    between atoms: _33  and  _34
REMARK   17  A    between atoms: _37  and  _39
REMARK   18  A    between atoms: _39  and  _40
REMARK   19  A    between atoms: _39  and  _42
REMARK   20  A    between atoms: _42  and  _43
REMARK   21  A    between atoms: _46  and  _48
REMARK   22  A    between atoms: _48  and  _49
REMARK   23  A    between atoms: _52  and  _54
REMARK   24  A    between atoms: _54  and  _55
REMARK   25  A    between atoms: _54  and  _57
REMARK   26  A    between atoms: _57  and  _58
REMARK   27  A    between atoms: _63  and  _64
REMARK   28  A    between atoms: _66  and  _68
REMARK   29  A    between atoms: _68  and  _69
REMARK   30  A    between atoms: _68  and  _71
REMARK   31  A    between atoms: _71  and  _72
REMARK   32  A    between atoms: _75  and  _77
REMARK   33  A    between atoms: _77  and  _78
REMARK   34  A    between atoms: _77  and  _80
REMARK   35  A    between atoms: _80  and  _81
REMARK   36  A    between atoms: _87  and  _89
REMARK   37  A    between atoms: _89  and  _90
REMARK   38  A    between atoms: _89  and  _92
REMARK   39  A    between atoms: _92  and  _93
REMARK   40  A    between atoms: _96  and  _98
REMARK   41  A    between atoms: _98  and  _99
REMARK   42  A    between atoms: _98  and  _101
REMARK   43  A    between atoms: _101  and  _102
REMARK   44  A    between atoms: _105  and  _107
REMARK   45  A    between atoms: _107  and  _108
REMARK   46  A    between atoms: _110  and  _112
REMARK   47  A    between atoms: _112  and  _113
REMARK   48  A    between atoms: _112  and  _115
REMARK   49  A    between atoms: _115  and  _116
REMARK   50  A    between atoms: _118  and  _120
REMARK   51  A    between atoms: _120  and  _121
REMARK   52  A    between atoms: _120  and  _123
REMARK   53  A    between atoms: _123  and  _124
REMARK   54  A    between atoms: _126  and  _128
REMARK   55  A    between atoms: _128  and  _129
REMARK   56  A    between atoms: _128  and  _131
REMARK   57  A    between atoms: _131  and  _132
REMARK   58  A    between atoms: _135  and  _137
REMARK   59  A    between atoms: _137  and  _138
REMARK   60  A    between atoms: _137  and  _140
REMARK   61  A    between atoms: _140  and  _141
REMARK   62  A    between atoms: _151  and  _153
REMARK   63  A    between atoms: _153  and  _154
REMARK   64  A    between atoms: _153  and  _156
REMARK   65  A    between atoms: _156  and  _157
REMARK   66  A    between atoms: _159  and  _161
REMARK   67  A    between atoms: _161  and  _162
REMARK   68  A    between atoms: _161  and  _164
REMARK   69  A    between atoms: _164  and  _165
REMARK   70  A    between atoms: _168  and  _170
REMARK   71  A    between atoms: _170  and  _171
REMARK   72  A    between atoms: _170  and  _173
REMARK   73  A    between atoms: _173  and  _174
REMARK   74  A    between atoms: _176  and  _178
REMARK   75  A    between atoms: _178  and  _179
REMARK   76  A    between atoms: _178  and  _181
REMARK   77  A    between atoms: _181  and  _182
REMARK   78  A    between atoms: _187  and  _188
REMARK   79  A    between atoms: _190  and  _192
REMARK   80  A    between atoms: _192  and  _193
REMARK   81  A    between atoms: _195  and  _197
REMARK   82  A    between atoms: _197  and  _198
REMARK   83  A    between atoms: _197  and  _200
REMARK   84  A    between atoms: _200  and  _201
REMARK   85  A    between atoms: _204  and  _206
REMARK   86  A    between atoms: _206  and  _207
REMARK   87  A    between atoms: _209  and  _211
REMARK   88  A    between atoms: _211  and  _212
REMARK   89  A    between atoms: _211  and  _214
REMARK   90  A    between atoms: _214  and  _215
REMARK   91  A    between atoms: _217  and  _219
REMARK   92  A    between atoms: _219  and  _220
REMARK   93  A    between atoms: _219  and  _222
REMARK   94  A    between atoms: _222  and  _223
REMARK   95  A    between atoms: _225  and  _227
REMARK   96  A    between atoms: _227  and  _228
REMARK   97  A    between atoms: _227  and  _230
REMARK   98  A    between atoms: _230  and  _231
REMARK   99  A    between atoms: _233  and  _235
REMARK  100  A    between atoms: _235  and  _236
REMARK  101  A    between atoms: _235  and  _238
REMARK  102  A    between atoms: _238  and  _239
REMARK  103  A    between atoms: _245  and  _247
REMARK  104  A    between atoms: _247  and  _248
REMARK  105  A    between atoms: _247  and  _250
REMARK  106  A    between atoms: _250  and  _251
REMARK  107  A    between atoms: _254  and  _256
REMARK  108  A    between atoms: _256  and  _257
REMARK  109  A    between atoms: _256  and  _259
REMARK  110  A    between atoms: _259  and  _260
REMARK  111  A    between atoms: _263  and  _265
REMARK  112  A    between atoms: _265  and  _266
REMARK  113  A    between atoms: _265  and  _268
REMARK  114  A    between atoms: _268  and  _269
REMARK  115  A    between atoms: _272  and  _274
REMARK  116  A    between atoms: _274  and  _275
REMARK  117  A    between atoms: _277  and  _279
REMARK  118  A    between atoms: _279  and  _280
REMARK  119  A    between atoms: _279  and  _282
REMARK  120  A    between atoms: _282  and  _283
REMARK  121  A    between atoms: _286  and  _288
REMARK  122  A    between atoms: _288  and  _289
REMARK  123  A    between atoms: _288  and  _291
REMARK  124  A    between atoms: _291  and  _292
REMARK  125  A    between atoms: _295  and  _297
REMARK  126  A    between atoms: _297  and  _298
REMARK  127  A    between atoms: _300  and  _302
REMARK  128  A    between atoms: _302  and  _303
REMARK  129  A    between atoms: _302  and  _305
REMARK  130  A    between atoms: _305  and  _306
REMARK  131  A    between atoms: _309  and  _311
REMARK  132  A    between atoms: _311  and  _312
REMARK  133  A    between atoms: _315  and  _317
REMARK  134  A    between atoms: _317  and  _318
REMARK  135  A    between atoms: _317  and  _320
REMARK  136  A    between atoms: _320  and  _321
REMARK  137  A    between atoms: _327  and  _329
REMARK  138  A    between atoms: _329  and  _330
REMARK  139  A    between atoms: _329  and  _332
REMARK  140  A    between atoms: _332  and  _333
REMARK  141  A    between atoms: _336  and  _338
REMARK  142  A    between atoms: _338  and  _339
REMARK  143  A    between atoms: _338  and  _341
REMARK  144  A    between atoms: _341  and  _342
REMARK  145  A    between atoms: _345  and  _347
REMARK  146  A    between atoms: _347  and  _348
REMARK  147  A    between atoms: _347  and  _350
REMARK  148  A    between atoms: _350  and  _351
REMARK  149  A    between atoms: _356  and  _358
REMARK  150  A    between atoms: _358  and  _359
REMARK  151  A    between atoms: _358  and  _361
REMARK  152  A    between atoms: _361  and  _362
REMARK  153  A    between atoms: _365  and  _367
REMARK  154  A    between atoms: _367  and  _368
REMARK  155  A    between atoms: _367  and  _370
REMARK  156  A    between atoms: _370  and  _371
REMARK  157  A    between atoms: _371  and  _372
REMARK  158  A    between atoms: _377  and  _379
REMARK  159  A    between atoms: _379  and  _380
REMARK  160  A    between atoms: _382  and  _384
REMARK  161  A    between atoms: _384  and  _385
REMARK  162  A    between atoms: _384  and  _387
REMARK  163  A    between atoms: _387  and  _388
REMARK  164  A    between atoms: _394  and  _396
REMARK  165  A    between atoms: _396  and  _397
REMARK  166  A    between atoms: _396  and  _399
REMARK  167  A    between atoms: _399  and  _400
REMARK  168  A    between atoms: _403  and  _405
REMARK  169  A    between atoms: _405  and  _406
REMARK  170  A    between atoms: _409  and  _411
REMARK  171  A    between atoms: _411  and  _412
REMARK  172  A    between atoms: _411  and  _414
REMARK  173  A    between atoms: _414  and  _415
REMARK  174  A    between atoms: _418  and  _420
REMARK  175  A    between atoms: _420  and  _421
REMARK  176  A    between atoms: _420  and  _423
REMARK  177  A    between atoms: _423  and  _424
REMARK  178  A    between atoms: _427  and  _429
REMARK  179  A    between atoms: _429  and  _430
REMARK  180  A    between atoms: _432  and  _434
REMARK  181  A    between atoms: _434  and  _435
REMARK  182  A    between atoms: _434  and  _437
REMARK  183  A    between atoms: _437  and  _438
REMARK  184  A    between atoms: _441  and  _443
REMARK  185  A    between atoms: _443  and  _444
REMARK  186  A    between atoms: _443  and  _446
REMARK  187  A    between atoms: _446  and  _447
REMARK  188  A    between atoms: _450  and  _452
REMARK  189  A    between atoms: _452  and  _453
REMARK  190  A    between atoms: _452  and  _455
REMARK  191  A    between atoms: _455  and  _456
REMARK  192  A    between atoms: _459  and  _461
REMARK  193  A    between atoms: _461  and  _462
REMARK  194  A    between atoms: _461  and  _464
REMARK  195  A    between atoms: _464  and  _465
REMARK  196  A    between atoms: _470  and  _471
REMARK  197  A    between atoms: _473  and  _475
REMARK  198  A    between atoms: _475  and  _476
REMARK  199  A    between atoms: _478  and  _480
REMARK  200  A    between atoms: _480  and  _481
REMARK  201  A    between atoms: _480  and  _483
REMARK  202  A    between atoms: _483  and  _484
REMARK  203  A    between atoms: _490  and  _492
REMARK  204  A    between atoms: _492  and  _493
REMARK  205  A    between atoms: _492  and  _495
REMARK  206  A    between atoms: _495  and  _496
REMARK  207  A    between atoms: _502  and  _504
REMARK  208  A    between atoms: _504  and  _505
REMARK  209  A    between atoms: _507  and  _509
REMARK  210  A    between atoms: _509  and  _510
REMARK  211  A    between atoms: _512  and  _514
REMARK  212  A    between atoms: _514  and  _515
REMARK  213  A    between atoms: _514  and  _517
REMARK  214  A    between atoms: _517  and  _518
REMARK  215  A    between atoms: _518  and  _519
REMARK  216  A    between atoms: _524  and  _526
REMARK  217  A    between atoms: _526  and  _527
REMARK  218  A    between atoms: _529  and  _531
REMARK  219  A    between atoms: _531  and  _532
REMARK  220  A    between atoms: _531  and  _534
REMARK  221  A    between atoms: _534  and  _535
REMARK  222  A    between atoms: _538  and  _540
REMARK  223  A    between atoms: _540  and  _541
REMARK  224  A    between atoms: _543  and  _545
REMARK  225  A    between atoms: _545  and  _546
REMARK  226  A    between atoms: _545  and  _548
REMARK  227  A    between atoms: _548  and  _549
REMARK  228  A    between atoms: _552  and  _554
REMARK  229  A    between atoms: _554  and  _555
REMARK  230  A    between atoms: _554  and  _557
REMARK  231  A    between atoms: _557  and  _558
REMARK  232  A    between atoms: _563  and  _565
REMARK  233  A    between atoms: _565  and  _566
REMARK  234  A    between atoms: _565  and  _568
REMARK  235  A    between atoms: _568  and  _569
REMARK  236  A    between atoms: _572  and  _574
REMARK  237  A    between atoms: _574  and  _575
REMARK  238  A    between atoms: _577  and  _579
REMARK  239  A    between atoms: _579  and  _580
REMARK  240  A    between atoms: _579  and  _582
REMARK  241  A    between atoms: _582  and  _583
REMARK                            x       y       z     vdW  Elec       q    Type
REMARK                         _______ _______ _______ _____ _____    ______ ____
ROOT
ATOM      1  O   HOH     1       3.238  46.067   7.731  0.00  0.00    +0.000 OA
ENDROOT
TORSDOF 0
REMARK  Name = ../refined-set-2016/1gvw/1gvw_pocket.pdb
REMARK  241 active torsions:
REMARK  status: ('A' for Active; 'I' for Inactive)
REMARK    1  A    between atoms: _1  and  _3
REMARK    2  A    between atoms: _3  and  _4
REMARK    3  A    between atoms: _3  and  _6
REMARK    4  A    between atoms: _6  and  _7
REMARK    5  A    between atoms: _10  and  _12
REMARK    6  A    between atoms: _12  and  _13
REMARK    7  A    between atoms: _12  and  _15
REMARK    8  A    between atoms: _15  and  _16
REMARK    9  A    between atoms: _19  and  _21
REMARK   10  A    between atoms: _21  and  _22
REMARK   11  A    between atoms: _21  and  _24
REMARK   12  A    between atoms: _24  and  _25
REMARK   13  A    between atoms: _28  and  _30
REMARK   14  A    between atoms: _30  and  _31
REMARK   15  A    between atoms: _30  and  _33
REMARK   16  A    between atoms: _33  and  _34
REMARK   17  A    between atoms: _37  and  _39
REMARK   18  A    between atoms: _39  and  _40
REMARK   19  A    between atoms: _39  and  _42
REMARK   20  A    between atoms: _42  and  _43
REMARK   21  A    between atoms: _46  and  _48
REMARK   22  A    between atoms: _48  and  _49
REMARK   23  A    between atoms: _52  and  _54
REMARK   24  A    between atoms: _54  and  _55
REMARK   25  A    between atoms: _54  and  _57
REMARK   26  A    between atoms: _57  and  _58
REMARK   27  A    between atoms: _63  and  _64
REMARK   28  A    between atoms: _66  and  _68
REMARK   29  A    between atoms: _68  and  _69
REMARK   30  A    between atoms: _68  and  _71
REMARK   31  A    between atoms: _71  and  _72
REMARK   32  A    between atoms: _75  and  _77
REMARK   33  A    between atoms: _77  and  _78
REMARK   34  A    between atoms: _77  and  _80
REMARK   35  A    between atoms: _80  and  _81
REMARK   36  A    between atoms: _87  and  _89
REMARK   37  A    between atoms: _89  and  _90
REMARK   38  A    between atoms: _89  and  _92
REMARK   39  A    between atoms: _92  and  _93
REMARK   40  A    between atoms: _96  and  _98
REMARK   41  A    between atoms: _98  and  _99
REMARK   42  A    between atoms: _98  and  _101
REMARK   43  A    between atoms: _101  and  _102
REMARK   44  A    between atoms: _105  and  _107
REMARK   45  A    between atoms: _107  and  _108
REMARK   46  A    between atoms: _110  and  _112
REMARK   47  A    between atoms: _112  and  _113
REMARK   48  A    between atoms: _112  and  _115
REMARK   49  A    between atoms: _115  and  _116
REMARK   50  A    between atoms: _118  and  _120
REMARK   51  A    between atoms: _120  and  _121
REMARK   52  A    between atoms: _120  and  _123
REMARK   53  A    between atoms: _123  and  _124
REMARK   54  A    between atoms: _126  and  _128
REMARK   55  A    between atoms: _128  and  _129
REMARK   56  A    between atoms: _128  and  _131
REMARK   57  A    between atoms: _131  and  _132
REMARK   58  A    between atoms: _135  and  _137
REMARK   59  A    between atoms: _137  and  _138
REMARK   60  A    between atoms: _137  and  _140
REMARK   61  A    between atoms: _140  and  _141
REMARK   62  A    between atoms: _151  and  _153
REMARK   63  A    between atoms: _153  and  _154
REMARK   64  A    between atoms: _153  and  _156
REMARK   65  A    between atoms: _156  and  _157
REMARK   66  A    between atoms: _159  and  _161
REMARK   67  A    between atoms: _161  and  _162
REMARK   68  A    between atoms: _161  and  _164
REMARK   69  A    between atoms: _164  and  _165
REMARK   70  A    between atoms: _168  and  _170
REMARK   71  A    between atoms: _170  and  _171
REMARK   72  A    between atoms: _170  and  _173
REMARK   73  A    between atoms: _173  and  _174
REMARK   74  A    between atoms: _176  and  _178
REMARK   75  A    between atoms: _178  and  _179
REMARK   76  A    between atoms: _178  and  _181
REMARK   77  A    between atoms: _181  and  _182
REMARK   78  A    between atoms: _187  and  _188
REMARK   79  A    between atoms: _190  and  _192
REMARK   80  A    between atoms: _192  and  _193
REMARK   81  A    between atoms: _195  and  _197
REMARK   82  A    between atoms: _197  and  _198
REMARK   83  A    between atoms: _197  and  _200
REMARK   84  A    between atoms: _200  and  _201
REMARK   85  A    between atoms: _204  and  _206
REMARK   86  A    between atoms: _206  and  _207
REMARK   87  A    between atoms: _209  and  _211
REMARK   88  A    between atoms: _211  and  _212
REMARK   89  A    between atoms: _211  and  _214
REMARK   90  A    between atoms: _214  and  _215
REMARK   91  A    between atoms: _217  and  _219
REMARK   92  A    between atoms: _219  and  _220
REMARK   93  A    between atoms: _219  and  _222
REMARK   94  A    between atoms: _222  and  _223
REMARK   95  A    between atoms: _225  and  _227
REMARK   96  A    between atoms: _227  and  _228
REMARK   97  A    between atoms: _227  and  _230
REMARK   98  A    between atoms: _230  and  _231
REMARK   99  A    between atoms: _233  and  _235
REMARK  100  A    between atoms: _235  and  _236
REMARK  101  A    between atoms: _235  and  _238
REMARK  102  A    between atoms: _238  and  _239
REMARK  103  A    between atoms: _245  and  _247
REMARK  104  A    between atoms: _247  and  _248
REMARK  105  A    between atoms: _247  and  _250
REMARK  106  A    between atoms: _250  and  _251
REMARK  107  A    between atoms: _254  and  _256
REMARK  108  A    between atoms: _256  and  _257
REMARK  109  A    between atoms: _256  and  _259
REMARK  110  A    between atoms: _259  and  _260
REMARK  111  A    between atoms: _263  and  _265
REMARK  112  A    between atoms: _265  and  _266
REMARK  113  A    between atoms: _265  and  _268
REMARK  114  A    between atoms: _268  and  _269
REMARK  115  A    between atoms: _272  and  _274
REMARK  116  A    between atoms: _274  and  _275
REMARK  117  A    between atoms: _277  and  _279
REMARK  118  A    between atoms: _279  and  _280
REMARK  119  A    between atoms: _279  and  _282
REMARK  120  A    between atoms: _282  and  _283
REMARK  121  A    between atoms: _286  and  _288
REMARK  122  A    between atoms: _288  and  _289
REMARK  123  A    between atoms: _288  and  _291
REMARK  124  A    between atoms: _291  and  _292
REMARK  125  A    between atoms: _295  and  _297
REMARK  126  A    between atoms: _297  and  _298
REMARK  127  A    between atoms: _300  and  _302
REMARK  128  A    between atoms: _302  and  _303
REMARK  129  A    between atoms: _302  and  _305
REMARK  130  A    between atoms: _305  and  _306
REMARK  131  A    between atoms: _309  and  _311
REMARK  132  A    between atoms: _311  and  _312
REMARK  133  A    between atoms: _315  and  _317
REMARK  134  A    between atoms: _317  and  _318
REMARK  135  A    between atoms: _317  and  _320
REMARK  136  A    between atoms: _320  and  _321
REMARK  137  A    between atoms: _327  and  _329
REMARK  138  A    between atoms: _329  and  _330
REMARK  139  A    between atoms: _329  and  _332
REMARK  140  A    between atoms: _332  and  _333
REMARK  141  A    between atoms: _336  and  _338
REMARK  142  A    between atoms: _338  and  _339
REMARK  143  A    between atoms: _338  and  _341
REMARK  144  A    between atoms: _341  and  _342
REMARK  145  A    between atoms: _345  and  _347
REMARK  146  A    between atoms: _347  and  _348
REMARK  147  A    between atoms: _347  and  _350
REMARK  148  A    between atoms: _350  and  _351
REMARK  149  A    between atoms: _356  and  _358
REMARK  150  A    between atoms: _358  and  _359
REMARK  151  A    between atoms: _358  and  _361
REMARK  152  A    between atoms: _361  and  _362
REMARK  153  A    between atoms: _365  and  _367
REMARK  154  A    between atoms: _367  and  _368
REMARK  155  A    between atoms: _367  and  _370
REMARK  156  A    between atoms: _370  and  _371
REMARK  157  A    between atoms: _371  and  _372
REMARK  158  A    between atoms: _377  and  _379
REMARK  159  A    between atoms: _379  and  _380
REMARK  160  A    between atoms: _382  and  _384
REMARK  161  A    between atoms: _384  and  _385
REMARK  162  A    between atoms: _384  and  _387
REMARK  163  A    between atoms: _387  and  _388
REMARK  164  A    between atoms: _394  and  _396
REMARK  165  A    between atoms: _396  and  _397
REMARK  166  A    between atoms: _396  and  _399
REMARK  167  A    between atoms: _399  and  _400
REMARK  168  A    between atoms: _403  and  _405
REMARK  169  A    between atoms: _405  and  _406
REMARK  170  A    between atoms: _409  and  _411
REMARK  171  A    between atoms: _411  and  _412
REMARK  172  A    between atoms: _411  and  _414
REMARK  173  A    between atoms: _414  and  _415
REMARK  174  A    between atoms: _418  and  _420
REMARK  175  A    between atoms: _420  and  _421
REMARK  176  A    between atoms: _420  and  _423
REMARK  177  A    between atoms: _423  and  _424
REMARK  178  A    between atoms: _427  and  _429
REMARK  179  A    between atoms: _429  and  _430
REMARK  180  A    between atoms: _432  and  _434
REMARK  181  A    between atoms: _434  and  _435
REMARK  182  A    between atoms: _434  and  _437
REMARK  183  A    between atoms: _437  and  _438
REMARK  184  A    between atoms: _441  and  _443
REMARK  185  A    between atoms: _443  and  _444
REMARK  186  A    between atoms: _443  and  _446
REMARK  187  A    between atoms: _446  and  _447
REMARK  188  A    between atoms: _450  and  _452
REMARK  189  A    between atoms: _452  and  _453
REMARK  190  A    between atoms: _452  and  _455
REMARK  191  A    between atoms: _455  and  _456
REMARK  192  A    between atoms: _459  and  _461
REMARK  193  A    between atoms: _461  and  _462
REMARK  194  A    between atoms: _461  and  _464
REMARK  195  A    between atoms: _464  and  _465
REMARK  196  A    between atoms: _470  and  _471
REMARK  197  A    between atoms: _473  and  _475
REMARK  198  A    between atoms: _475  and  _476
REMARK  199  A    between atoms: _478  and  _480
REMARK  200  A    between atoms: _480  and  _481
REMARK  201  A    between atoms: _480  and  _483
REMARK  202  A    between atoms: _483  and  _484
REMARK  203  A    between atoms: _490  and  _492
REMARK  204  A    between atoms: _492  and  _493
REMARK  205  A    between atoms: _492  and  _495
REMARK  206  A    between atoms: _495  and  _496
REMARK  207  A    between atoms: _502  and  _504
REMARK  208  A    between atoms: _504  and  _505
REMARK  209  A    between atoms: _507  and  _509
REMARK  210  A    between atoms: _509  and  _510
REMARK  211  A    between atoms: _512  and  _514
REMARK  212  A    between atoms: _514  and  _515
REMARK  213  A    between atoms: _514  and  _517
REMARK  214  A    between atoms: _517  and  _518
REMARK  215  A    between atoms: _518  and  _519
REMARK  216  A    between atoms: _524  and  _526
REMARK  217  A    between atoms: _526  and  _527
REMARK  218  A    between atoms: _529  and  _531
REMARK  219  A    between atoms: _531  and  _532
REMARK  220  A    between atoms: _531  and  _534
REMARK  221  A    between atoms: _534  and  _535
REMARK  222  A    between atoms: _538  and  _540
REMARK  223  A    between atoms: _540  and  _541
REMARK  224  A    between atoms: _543  and  _545
REMARK  225  A    between atoms: _545  and  _546
REMARK  226  A    between atoms: _545  and  _548
REMARK  227  A    between atoms: _548  and  _549
REMARK  228  A    between atoms: _552  and  _554
REMARK  229  A    between atoms: _554  and  _555
REMARK  230  A    between atoms: _554  and  _557
REMARK  231  A    between atoms: _557  and  _558
REMARK  232  A    between atoms: _563  and  _565
REMARK  233  A    between atoms: _565  and  _566
REMARK  234  A    between atoms: _565  and  _568
REMARK  235  A    between atoms: _568  and  _569
REMARK  236  A    between atoms: _572  and  _574
REMARK  237  A    between atoms: _574  and  _575
REMARK  238  A    between atoms: _577  and  _579
REMARK  239  A    between atoms: _579  and  _580
REMARK  240  A    between atoms: _579  and  _582
REMARK  241  A    between atoms: _582  and  _583
REMARK                            x       y       z     vdW  Elec       q    Type
REMARK                         _______ _______ _______ _____ _____    ______ ____
ROOT
ATOM      1  O   HOH     1       4.493  44.856  10.286  0.00  0.00    +0.000 OA
ENDROOT
TORSDOF 0
REMARK  Name = ../refined-set-2016/1gvw/1gvw_pocket.pdb
REMARK  241 active torsions:
REMARK  status: ('A' for Active; 'I' for Inactive)
REMARK    1  A    between atoms: _1  and  _3
REMARK    2  A    between atoms: _3  and  _4
REMARK    3  A    between atoms: _3  and  _6
REMARK    4  A    between atoms: _6  and  _7
REMARK    5  A    between atoms: _10  and  _12
REMARK    6  A    between atoms: _12  and  _13
REMARK    7  A    between atoms: _12  and  _15
REMARK    8  A    between atoms: _15  and  _16
REMARK    9  A    between atoms: _19  and  _21
REMARK   10  A    between atoms: _21  and  _22
REMARK   11  A    between atoms: _21  and  _24
REMARK   12  A    between atoms: _24  and  _25
REMARK   13  A    between atoms: _28  and  _30
REMARK   14  A    between atoms: _30  and  _31
REMARK   15  A    between atoms: _30  and  _33
REMARK   16  A    between atoms: _33  and  _34
REMARK   17  A    between atoms: _37  and  _39
REMARK   18  A    between atoms: _39  and  _40
REMARK   19  A    between atoms: _39  and  _42
REMARK   20  A    between atoms: _42  and  _43
REMARK   21  A    between atoms: _46  and  _48
REMARK   22  A    between atoms: _48  and  _49
REMARK   23  A    between atoms: _52  and  _54
REMARK   24  A    between atoms: _54  and  _55
REMARK   25  A    between atoms: _54  and  _57
REMARK   26  A    between atoms: _57  and  _58
REMARK   27  A    between atoms: _63  and  _64
REMARK   28  A    between atoms: _66  and  _68
REMARK   29  A    between atoms: _68  and  _69
REMARK   30  A    between atoms: _68  and  _71
REMARK   31  A    between atoms: _71  and  _72
REMARK   32  A    between atoms: _75  and  _77
REMARK   33  A    between atoms: _77  and  _78
REMARK   34  A    between atoms: _77  and  _80
REMARK   35  A    between atoms: _80  and  _81
REMARK   36  A    between atoms: _87  and  _89
REMARK   37  A    between atoms: _89  and  _90
REMARK   38  A    between atoms: _89  and  _92
REMARK   39  A    between atoms: _92  and  _93
REMARK   40  A    between atoms: _96  and  _98
REMARK   41  A    between atoms: _98  and  _99
REMARK   42  A    between atoms: _98  and  _101
REMARK   43  A    between atoms: _101  and  _102
REMARK   44  A    between atoms: _105  and  _107
REMARK   45  A    between atoms: _107  and  _108
REMARK   46  A    between atoms: _110  and  _112
REMARK   47  A    between atoms: _112  and  _113
REMARK   48  A    between atoms: _112  and  _115
REMARK   49  A    between atoms: _115  and  _116
REMARK   50  A    between atoms: _118  and  _120
REMARK   51  A    between atoms: _120  and  _121
REMARK   52  A    between atoms: _120  and  _123
REMARK   53  A    between atoms: _123  and  _124
REMARK   54  A    between atoms: _126  and  _128
REMARK   55  A    between atoms: _128  and  _129
REMARK   56  A    between atoms: _128  and  _131
REMARK   57  A    between atoms: _131  and  _132
REMARK   58  A    between atoms: _135  and  _137
REMARK   59  A    between atoms: _137  and  _138
REMARK   60  A    between atoms: _137  and  _140
REMARK   61  A    between atoms: _140  and  _141
REMARK   62  A    between atoms: _151  and  _153
REMARK   63  A    between atoms: _153  and  _154
REMARK   64  A    between atoms: _153  and  _156
REMARK   65  A    between atoms: _156  and  _157
REMARK   66  A    between atoms: _159  and  _161
REMARK   67  A    between atoms: _161  and  _162
REMARK   68  A    between atoms: _161  and  _164
REMARK   69  A    between atoms: _164  and  _165
REMARK   70  A    between atoms: _168  and  _170
REMARK   71  A    between atoms: _170  and  _171
REMARK   72  A    between atoms: _170  and  _173
REMARK   73  A    between atoms: _173  and  _174
REMARK   74  A    between atoms: _176  and  _178
REMARK   75  A    between atoms: _178  and  _179
REMARK   76  A    between atoms: _178  and  _181
REMARK   77  A    between atoms: _181  and  _182
REMARK   78  A    between atoms: _187  and  _188
REMARK   79  A    between atoms: _190  and  _192
REMARK   80  A    between atoms: _192  and  _193
REMARK   81  A    between atoms: _195  and  _197
REMARK   82  A    between atoms: _197  and  _198
REMARK   83  A    between atoms: _197  and  _200
REMARK   84  A    between atoms: _200  and  _201
REMARK   85  A    between atoms: _204  and  _206
REMARK   86  A    between atoms: _206  and  _207
REMARK   87  A    between atoms: _209  and  _211
REMARK   88  A    between atoms: _211  and  _212
REMARK   89  A    between atoms: _211  and  _214
REMARK   90  A    between atoms: _214  and  _215
REMARK   91  A    between atoms: _217  and  _219
REMARK   92  A    between atoms: _219  and  _220
REMARK   93  A    between atoms: _219  and  _222
REMARK   94  A    between atoms: _222  and  _223
REMARK   95  A    between atoms: _225  and  _227
REMARK   96  A    between atoms: _227  and  _228
REMARK   97  A    between atoms: _227  and  _230
REMARK   98  A    between atoms: _230  and  _231
REMARK   99  A    between atoms: _233  and  _235
REMARK  100  A    between atoms: _235  and  _236
REMARK  101  A    between atoms: _235  and  _238
REMARK  102  A    between atoms: _238  and  _239
REMARK  103  A    between atoms: _245  and  _247
REMARK  104  A    between atoms: _247  and  _248
REMARK  105  A    between atoms: _247  and  _250
REMARK  106  A    between atoms: _250  and  _251
REMARK  107  A    between atoms: _254  and  _256
REMARK  108  A    between atoms: _256  and  _257
REMARK  109  A    between atoms: _256  and  _259
REMARK  110  A    between atoms: _259  and  _260
REMARK  111  A    between atoms: _263  and  _265
REMARK  112  A    between atoms: _265  and  _266
REMARK  113  A    between atoms: _265  and  _268
REMARK  114  A    between atoms: _268  and  _269
REMARK  115  A    between atoms: _272  and  _274
REMARK  116  A    between atoms: _274  and  _275
REMARK  117  A    between atoms: _277  and  _279
REMARK  118  A    between atoms: _279  and  _280
REMARK  119  A    between atoms: _279  and  _282
REMARK  120  A    between atoms: _282  and  _283
REMARK  121  A    between atoms: _286  and  _288
REMARK  122  A    between atoms: _288  and  _289
REMARK  123  A    between atoms: _288  and  _291
REMARK  124  A    between atoms: _291  and  _292
REMARK  125  A    between atoms: _295  and  _297
REMARK  126  A    between atoms: _297  and  _298
REMARK  127  A    between atoms: _300  and  _302
REMARK  128  A    between atoms: _302  and  _303
REMARK  129  A    between atoms: _302  and  _305
REMARK  130  A    between atoms: _305  and  _306
REMARK  131  A    between atoms: _309  and  _311
REMARK  132  A    between atoms: _311  and  _312
REMARK  133  A    between atoms: _315  and  _317
REMARK  134  A    between atoms: _317  and  _318
REMARK  135  A    between atoms: _317  and  _320
REMARK  136  A    between atoms: _320  and  _321
REMARK  137  A    between atoms: _327  and  _329
REMARK  138  A    between atoms: _329  and  _330
REMARK  139  A    between atoms: _329  and  _332
REMARK  140  A    between atoms: _332  and  _333
REMARK  141  A    between atoms: _336  and  _338
REMARK  142  A    between atoms: _338  and  _339
REMARK  143  A    between atoms: _338  and  _341
REMARK  144  A    between atoms: _341  and  _342
REMARK  145  A    between atoms: _345  and  _347
REMARK  146  A    between atoms: _347  and  _348
REMARK  147  A    between atoms: _347  and  _350
REMARK  148  A    between atoms: _350  and  _351
REMARK  149  A    between atoms: _356  and  _358
REMARK  150  A    between atoms: _358  and  _359
REMARK  151  A    between atoms: _358  and  _361
REMARK  152  A    between atoms: _361  and  _362
REMARK  153  A    between atoms: _365  and  _367
REMARK  154  A    between atoms: _367  and  _368
REMARK  155  A    between atoms: _367  and  _370
REMARK  156  A    between atoms: _370  and  _371
REMARK  157  A    between atoms: _371  and  _372
REMARK  158  A    between atoms: _377  and  _379
REMARK  159  A    between atoms: _379  and  _380
REMARK  160  A    between atoms: _382  and  _384
REMARK  161  A    between atoms: _384  and  _385
REMARK  162  A    between atoms: _384  and  _387
REMARK  163  A    between atoms: _387  and  _388
REMARK  164  A    between atoms: _394  and  _396
REMARK  165  A    between atoms: _396  and  _397
REMARK  166  A    between atoms: _396  and  _399
REMARK  167  A    between atoms: _399  and  _400
REMARK  168  A    between atoms: _403  and  _405
REMARK  169  A    between atoms: _405  and  _406
REMARK  170  A    between atoms: _409  and  _411
REMARK  171  A    between atoms: _411  and  _412
REMARK  172  A    between atoms: _411  and  _414
REMARK  173  A    between atoms: _414  and  _415
REMARK  174  A    between atoms: _418  and  _420
REMARK  175  A    between atoms: _420  and  _421
REMARK  176  A    between atoms: _420  and  _423
REMARK  177  A    between atoms: _423  and  _424
REMARK  178  A    between atoms: _427  and  _429
REMARK  179  A    between atoms: _429  and  _430
REMARK  180  A    between atoms: _432  and  _434
REMARK  181  A    between atoms: _434  and  _435
REMARK  182  A    between atoms: _434  and  _437
REMARK  183  A    between atoms: _437  and  _438
REMARK  184  A    between atoms: _441  and  _443
REMARK  185  A    between atoms: _443  and  _444
REMARK  186  A    between atoms: _443  and  _446
REMARK  187  A    between atoms: _446  and  _447
REMARK  188  A    between atoms: _450  and  _452
REMARK  189  A    between atoms: _452  and  _453
REMARK  190  A    between atoms: _452  and  _455
REMARK  191  A    between atoms: _455  and  _456
REMARK  192  A    between atoms: _459  and  _461
REMARK  193  A    between atoms: _461  and  _462
REMARK  194  A    between atoms: _461  and  _464
REMARK  195  A    between atoms: _464  and  _465
REMARK  196  A    between atoms: _470  and  _471
REMARK  197  A    between atoms: _473  and  _475
REMARK  198  A    between atoms: _475  and  _476
REMARK  199  A    between atoms: _478  and  _480
REMARK  200  A    between atoms: _480  and  _481
REMARK  201  A    between atoms: _480  and  _483
REMARK  202  A    between atoms: _483  and  _484
REMARK  203  A    between atoms: _490  and  _492
REMARK  204  A    between atoms: _492  and  _493
REMARK  205  A    between atoms: _492  and  _495
REMARK  206  A    between atoms: _495  and  _496
REMARK  207  A    between atoms: _502  and  _504
REMARK  208  A    between atoms: _504  and  _505
REMARK  209  A    between atoms: _507  and  _509
REMARK  210  A    between atoms: _509  and  _510
REMARK  211  A    between atoms: _512  and  _514
REMARK  212  A    between atoms: _514  and  _515
REMARK  213  A    between atoms: _514  and  _517
REMARK  214  A    between atoms: _517  and  _518
REMARK  215  A    between atoms: _518  and  _519
REMARK  216  A    between atoms: _524  and  _526
REMARK  217  A    between atoms: _526  and  _527
REMARK  218  A    between atoms: _529  and  _531
REMARK  219  A    between atoms: _531  and  _532
REMARK  220  A    between atoms: _531  and  _534
REMARK  221  A    between atoms: _534  and  _535
REMARK  222  A    between atoms: _538  and  _540
REMARK  223  A    between atoms: _540  and  _541
REMARK  224  A    between atoms: _543  and  _545
REMARK  225  A    between atoms: _545  and  _546
REMARK  226  A    between atoms: _545  and  _548
REMARK  227  A    between atoms: _548  and  _549
REMARK  228  A    between atoms: _552  and  _554
REMARK  229  A    between atoms: _554  and  _555
REMARK  230  A    between atoms: _554  and  _557
REMARK  231  A    between atoms: _557  and  _558
REMARK  232  A    between atoms: _563  and  _565
REMARK  233  A    between atoms: _565  and  _566
REMARK  234  A    between atoms: _565  and  _568
REMARK  235  A    between atoms: _568  and  _569
REMARK  236  A    between atoms: _572  and  _574
REMARK  237  A    between atoms: _574  and  _575
REMARK  238  A    between atoms: _577  and  _579
REMARK  239  A    between atoms: _579  and  _580
REMARK  240  A    between atoms: _579  and  _582
REMARK  241  A    between atoms: _582  and  _583
REMARK                            x       y       z     vdW  Elec       q    Type
REMARK                         _______ _______ _______ _____ _____    ______ ____
ROOT
ATOM      1  O   HOH     1       5.179  47.987  10.731  0.00  0.00    +0.000 OA
ENDROOT
TORSDOF 0
REMARK  Name = ../refined-set-2016/1gvw/1gvw_pocket.pdb
REMARK  241 active torsions:
REMARK  status: ('A' for Active; 'I' for Inactive)
REMARK    1  A    between atoms: _1  and  _3
REMARK    2  A    between atoms: _3  and  _4
REMARK    3  A    between atoms: _3  and  _6
REMARK    4  A    between atoms: _6  and  _7
REMARK    5  A    between atoms: _10  and  _12
REMARK    6  A    between atoms: _12  and  _13
REMARK    7  A    between atoms: _12  and  _15
REMARK    8  A    between atoms: _15  and  _16
REMARK    9  A    between atoms: _19  and  _21
REMARK   10  A    between atoms: _21  and  _22
REMARK   11  A    between atoms: _21  and  _24
REMARK   12  A    between atoms: _24  and  _25
REMARK   13  A    between atoms: _28  and  _30
REMARK   14  A    between atoms: _30  and  _31
REMARK   15  A    between atoms: _30  and  _33
REMARK   16  A    between atoms: _33  and  _34
REMARK   17  A    between atoms: _37  and  _39
REMARK   18  A    between atoms: _39  and  _40
REMARK   19  A    between atoms: _39  and  _42
REMARK   20  A    between atoms: _42  and  _43
REMARK   21  A    between atoms: _46  and  _48
REMARK   22  A    between atoms: _48  and  _49
REMARK   23  A    between atoms: _52  and  _54
REMARK   24  A    between atoms: _54  and  _55
REMARK   25  A    between atoms: _54  and  _57
REMARK   26  A    between atoms: _57  and  _58
REMARK   27  A    between atoms: _63  and  _64
REMARK   28  A    between atoms: _66  and  _68
REMARK   29  A    between atoms: _68  and  _69
REMARK   30  A    between atoms: _68  and  _71
REMARK   31  A    between atoms: _71  and  _72
REMARK   32  A    between atoms: _75  and  _77
REMARK   33  A    between atoms: _77  and  _78
REMARK   34  A    between atoms: _77  and  _80
REMARK   35  A    between atoms: _80  and  _81
REMARK   36  A    between atoms: _87  and  _89
REMARK   37  A    between atoms: _89  and  _90
REMARK   38  A    between atoms: _89  and  _92
REMARK   39  A    between atoms: _92  and  _93
REMARK   40  A    between atoms: _96  and  _98
REMARK   41  A    between atoms: _98  and  _99
REMARK   42  A    between atoms: _98  and  _101
REMARK   43  A    between atoms: _101  and  _102
REMARK   44  A    between atoms: _105  and  _107
REMARK   45  A    between atoms: _107  and  _108
REMARK   46  A    between atoms: _110  and  _112
REMARK   47  A    between atoms: _112  and  _113
REMARK   48  A    between atoms: _112  and  _115
REMARK   49  A    between atoms: _115  and  _116
REMARK   50  A    between atoms: _118  and  _120
REMARK   51  A    between atoms: _120  and  _121
REMARK   52  A    between atoms: _120  and  _123
REMARK   53  A    between atoms: _123  and  _124
REMARK   54  A    between atoms: _126  and  _128
REMARK   55  A    between atoms: _128  and  _129
REMARK   56  A    between atoms: _128  and  _131
REMARK   57  A    between atoms: _131  and  _132
REMARK   58  A    between atoms: _135  and  _137
REMARK   59  A    between atoms: _137  and  _138
REMARK   60  A    between atoms: _137  and  _140
REMARK   61  A    between atoms: _140  and  _141
REMARK   62  A    between atoms: _151  and  _153
REMARK   63  A    between atoms: _153  and  _154
REMARK   64  A    between atoms: _153  and  _156
REMARK   65  A    between atoms: _156  and  _157
REMARK   66  A    between atoms: _159  and  _161
REMARK   67  A    between atoms: _161  and  _162
REMARK   68  A    between atoms: _161  and  _164
REMARK   69  A    between atoms: _164  and  _165
REMARK   70  A    between atoms: _168  and  _170
REMARK   71  A    between atoms: _170  and  _171
REMARK   72  A    between atoms: _170  and  _173
REMARK   73  A    between atoms: _173  and  _174
REMARK   74  A    between atoms: _176  and  _178
REMARK   75  A    between atoms: _178  and  _179
REMARK   76  A    between atoms: _178  and  _181
REMARK   77  A    between atoms: _181  and  _182
REMARK   78  A    between atoms: _187  and  _188
REMARK   79  A    between atoms: _190  and  _192
REMARK   80  A    between atoms: _192  and  _193
REMARK   81  A    between atoms: _195  and  _197
REMARK   82  A    between atoms: _197  and  _198
REMARK   83  A    between atoms: _197  and  _200
REMARK   84  A    between atoms: _200  and  _201
REMARK   85  A    between atoms: _204  and  _206
REMARK   86  A    between atoms: _206  and  _207
REMARK   87  A    between atoms: _209  and  _211
REMARK   88  A    between atoms: _211  and  _212
REMARK   89  A    between atoms: _211  and  _214
REMARK   90  A    between atoms: _214  and  _215
REMARK   91  A    between atoms: _217  and  _219
REMARK   92  A    between atoms: _219  and  _220
REMARK   93  A    between atoms: _219  and  _222
REMARK   94  A    between atoms: _222  and  _223
REMARK   95  A    between atoms: _225  and  _227
REMARK   96  A    between atoms: _227  and  _228
REMARK   97  A    between atoms: _227  and  _230
REMARK   98  A    between atoms: _230  and  _231
REMARK   99  A    between atoms: _233  and  _235
REMARK  100  A    between atoms: _235  and  _236
REMARK  101  A    between atoms: _235  and  _238
REMARK  102  A    between atoms: _238  and  _239
REMARK  103  A    between atoms: _245  and  _247
REMARK  104  A    between atoms: _247  and  _248
REMARK  105  A    between atoms: _247  and  _250
REMARK  106  A    between atoms: _250  and  _251
REMARK  107  A    between atoms: _254  and  _256
REMARK  108  A    between atoms: _256  and  _257
REMARK  109  A    between atoms: _256  and  _259
REMARK  110  A    between atoms: _259  and  _260
REMARK  111  A    between atoms: _263  and  _265
REMARK  112  A    between atoms: _265  and  _266
REMARK  113  A    between atoms: _265  and  _268
REMARK  114  A    between atoms: _268  and  _269
REMARK  115  A    between atoms: _272  and  _274
REMARK  116  A    between atoms: _274  and  _275
REMARK  117  A    between atoms: _277  and  _279
REMARK  118  A    between atoms: _279  and  _280
REMARK  119  A    between atoms: _279  and  _282
REMARK  120  A    between atoms: _282  and  _283
REMARK  121  A    between atoms: _286  and  _288
REMARK  122  A    between atoms: _288  and  _289
REMARK  123  A    between atoms: _288  and  _291
REMARK  124  A    between atoms: _291  and  _292
REMARK  125  A    between atoms: _295  and  _297
REMARK  126  A    between atoms: _297  and  _298
REMARK  127  A    between atoms: _300  and  _302
REMARK  128  A    between atoms: _302  and  _303
REMARK  129  A    between atoms: _302  and  _305
REMARK  130  A    between atoms: _305  and  _306
REMARK  131  A    between atoms: _309  and  _311
REMARK  132  A    between atoms: _311  and  _312
REMARK  133  A    between atoms: _315  and  _317
REMARK  134  A    between atoms: _317  and  _318
REMARK  135  A    between atoms: _317  and  _320
REMARK  136  A    between atoms: _320  and  _321
REMARK  137  A    between atoms: _327  and  _329
REMARK  138  A    between atoms: _329  and  _330
REMARK  139  A    between atoms: _329  and  _332
REMARK  140  A    between atoms: _332  and  _333
REMARK  141  A    between atoms: _336  and  _338
REMARK  142  A    between atoms: _338  and  _339
REMARK  143  A    between atoms: _338  and  _341
REMARK  144  A    between atoms: _341  and  _342
REMARK  145  A    between atoms: _345  and  _347
REMARK  146  A    between atoms: _347  and  _348
REMARK  147  A    between atoms: _347  and  _350
REMARK  148  A    between atoms: _350  and  _351
REMARK  149  A    between atoms: _356  and  _358
REMARK  150  A    between atoms: _358  and  _359
REMARK  151  A    between atoms: _358  and  _361
REMARK  152  A    between atoms: _361  and  _362
REMARK  153  A    between atoms: _365  and  _367
REMARK  154  A    between atoms: _367  and  _368
REMARK  155  A    between atoms: _367  and  _370
REMARK  156  A    between atoms: _370  and  _371
REMARK  157  A    between atoms: _371  and  _372
REMARK  158  A    between atoms: _377  and  _379
REMARK  159  A    between atoms: _379  and  _380
REMARK  160  A    between atoms: _382  and  _384
REMARK  161  A    between atoms: _384  and  _385
REMARK  162  A    between atoms: _384  and  _387
REMARK  163  A    between atoms: _387  and  _388
REMARK  164  A    between atoms: _394  and  _396
REMARK  165  A    between atoms: _396  and  _397
REMARK  166  A    between atoms: _396  and  _399
REMARK  167  A    between atoms: _399  and  _400
REMARK  168  A    between atoms: _403  and  _405
REMARK  169  A    between atoms: _405  and  _406
REMARK  170  A    between atoms: _409  and  _411
REMARK  171  A    between atoms: _411  and  _412
REMARK  172  A    between atoms: _411  and  _414
REMARK  173  A    between atoms: _414  and  _415
REMARK  174  A    between atoms: _418  and  _420
REMARK  175  A    between atoms: _420  and  _421
REMARK  176  A    between atoms: _420  and  _423
REMARK  177  A    between atoms: _423  and  _424
REMARK  178  A    between atoms: _427  and  _429
REMARK  179  A    between atoms: _429  and  _430
REMARK  180  A    between atoms: _432  and  _434
REMARK  181  A    between atoms: _434  and  _435
REMARK  182  A    between atoms: _434  and  _437
REMARK  183  A    between atoms: _437  and  _438
REMARK  184  A    between atoms: _441  and  _443
REMARK  185  A    between atoms: _443  and  _444
REMARK  186  A    between atoms: _443  and  _446
REMARK  187  A    between atoms: _446  and  _447
REMARK  188  A    between atoms: _450  and  _452
REMARK  189  A    between atoms: _452  and  _453
REMARK  190  A    between atoms: _452  and  _455
REMARK  191  A    between atoms: _455  and  _456
REMARK  192  A    between atoms: _459  and  _461
REMARK  193  A    between atoms: _461  and  _462
REMARK  194  A    between atoms: _461  and  _464
REMARK  195  A    between atoms: _464  and  _465
REMARK  196  A    between atoms: _470  and  _471
REMARK  197  A    between atoms: _473  and  _475
REMARK  198  A    between atoms: _475  and  _476
REMARK  199  A    between atoms: _478  and  _480
REMARK  200  A    between atoms: _480  and  _481
REMARK  201  A    between atoms: _480  and  _483
REMARK  202  A    between atoms: _483  and  _484
REMARK  203  A    between atoms: _490  and  _492
REMARK  204  A    between atoms: _492  and  _493
REMARK  205  A    between atoms: _492  and  _495
REMARK  206  A    between atoms: _495  and  _496
REMARK  207  A    between atoms: _502  and  _504
REMARK  208  A    between atoms: _504  and  _505
REMARK  209  A    between atoms: _507  and  _509
REMARK  210  A    between atoms: _509  and  _510
REMARK  211  A    between atoms: _512  and  _514
REMARK  212  A    between atoms: _514  and  _515
REMARK  213  A    between atoms: _514  and  _517
REMARK  214  A    between atoms: _517  and  _518
REMARK  215  A    between atoms: _518  and  _519
REMARK  216  A    between atoms: _524  and  _526
REMARK  217  A    between atoms: _526  and  _527
REMARK  218  A    between atoms: _529  and  _531
REMARK  219  A    between atoms: _531  and  _532
REMARK  220  A    between atoms: _531  and  _534
REMARK  221  A    between atoms: _534  and  _535
REMARK  222  A    between atoms: _538  and  _540
REMARK  223  A    between atoms: _540  and  _541
REMARK  224  A    between atoms: _543  and  _545
REMARK  225  A    between atoms: _545  and  _546
REMARK  226  A    between atoms: _545  and  _548
REMARK  227  A    between atoms: _548  and  _549
REMARK  228  A    between atoms: _552  and  _554
REMARK  229  A    between atoms: _554  and  _555
REMARK  230  A    between atoms: _554  and  _557
REMARK  231  A    between atoms: _557  and  _558
REMARK  232  A    between atoms: _563  and  _565
REMARK  233  A    between atoms: _565  and  _566
REMARK  234  A    between atoms: _565  and  _568
REMARK  235  A    between atoms: _568  and  _569
REMARK  236  A    between atoms: _572  and  _574
REMARK  237  A    between atoms: _574  and  _575
REMARK  238  A    between atoms: _577  and  _579
REMARK  239  A    between atoms: _579  and  _580
REMARK  240  A    between atoms: _579  and  _582
REMARK  241  A    between atoms: _582  and  _583
REMARK                            x       y       z     vdW  Elec       q    Type
REMARK                         _______ _______ _______ _____ _____    ______ ____
ROOT
ATOM      1  O   HOH     1      -0.289  41.035   6.941  0.00  0.00    +0.000 OA
ENDROOT
TORSDOF 0
REMARK  Name = ../refined-set-2016/1gvw/1gvw_pocket.pdb
REMARK  241 active torsions:
REMARK  status: ('A' for Active; 'I' for Inactive)
REMARK    1  A    between atoms: _1  and  _3
REMARK    2  A    between atoms: _3  and  _4
REMARK    3  A    between atoms: _3  and  _6
REMARK    4  A    between atoms: _6  and  _7
REMARK    5  A    between atoms: _10  and  _12
REMARK    6  A    between atoms: _12  and  _13
REMARK    7  A    between atoms: _12  and  _15
REMARK    8  A    between atoms: _15  and  _16
REMARK    9  A    between atoms: _19  and  _21
REMARK   10  A    between atoms: _21  and  _22
REMARK   11  A    between atoms: _21  and  _24
REMARK   12  A    between atoms: _24  and  _25
REMARK   13  A    between atoms: _28  and  _30
REMARK   14  A    between atoms: _30  and  _31
REMARK   15  A    between atoms: _30  and  _33
REMARK   16  A    between atoms: _33  and  _34
REMARK   17  A    between atoms: _37  and  _39
REMARK   18  A    between atoms: _39  and  _40
REMARK   19  A    between atoms: _39  and  _42
REMARK   20  A    between atoms: _42  and  _43
REMARK   21  A    between atoms: _46  and  _48
REMARK   22  A    between atoms: _48  and  _49
REMARK   23  A    between atoms: _52  and  _54
REMARK   24  A    between atoms: _54  and  _55
REMARK   25  A    between atoms: _54  and  _57
REMARK   26  A    between atoms: _57  and  _58
REMARK   27  A    between atoms: _63  and  _64
REMARK   28  A    between atoms: _66  and  _68
REMARK   29  A    between atoms: _68  and  _69
REMARK   30  A    between atoms: _68  and  _71
REMARK   31  A    between atoms: _71  and  _72
REMARK   32  A    between atoms: _75  and  _77
REMARK   33  A    between atoms: _77  and  _78
REMARK   34  A    between atoms: _77  and  _80
REMARK   35  A    between atoms: _80  and  _81
REMARK   36  A    between atoms: _87  and  _89
REMARK   37  A    between atoms: _89  and  _90
REMARK   38  A    between atoms: _89  and  _92
REMARK   39  A    between atoms: _92  and  _93
REMARK   40  A    between atoms: _96  and  _98
REMARK   41  A    between atoms: _98  and  _99
REMARK   42  A    between atoms: _98  and  _101
REMARK   43  A    between atoms: _101  and  _102
REMARK   44  A    between atoms: _105  and  _107
REMARK   45  A    between atoms: _107  and  _108
REMARK   46  A    between atoms: _110  and  _112
REMARK   47  A    between atoms: _112  and  _113
REMARK   48  A    between atoms: _112  and  _115
REMARK   49  A    between atoms: _115  and  _116
REMARK   50  A    between atoms: _118  and  _120
REMARK   51  A    between atoms: _120  and  _121
REMARK   52  A    between atoms: _120  and  _123
REMARK   53  A    between atoms: _123  and  _124
REMARK   54  A    between atoms: _126  and  _128
REMARK   55  A    between atoms: _128  and  _129
REMARK   56  A    between atoms: _128  and  _131
REMARK   57  A    between atoms: _131  and  _132
REMARK   58  A    between atoms: _135  and  _137
REMARK   59  A    between atoms: _137  and  _138
REMARK   60  A    between atoms: _137  and  _140
REMARK   61  A    between atoms: _140  and  _141
REMARK   62  A    between atoms: _151  and  _153
REMARK   63  A    between atoms: _153  and  _154
REMARK   64  A    between atoms: _153  and  _156
REMARK   65  A    between atoms: _156  and  _157
REMARK   66  A    between atoms: _159  and  _161
REMARK   67  A    between atoms: _161  and  _162
REMARK   68  A    between atoms: _161  and  _164
REMARK   69  A    between atoms: _164  and  _165
REMARK   70  A    between atoms: _168  and  _170
REMARK   71  A    between atoms: _170  and  _171
REMARK   72  A    between atoms: _170  and  _173
REMARK   73  A    between atoms: _173  and  _174
REMARK   74  A    between atoms: _176  and  _178
REMARK   75  A    between atoms: _178  and  _179
REMARK   76  A    between atoms: _178  and  _181
REMARK   77  A    between atoms: _181  and  _182
REMARK   78  A    between atoms: _187  and  _188
REMARK   79  A    between atoms: _190  and  _192
REMARK   80  A    between atoms: _192  and  _193
REMARK   81  A    between atoms: _195  and  _197
REMARK   82  A    between atoms: _197  and  _198
REMARK   83  A    between atoms: _197  and  _200
REMARK   84  A    between atoms: _200  and  _201
REMARK   85  A    between atoms: _204  and  _206
REMARK   86  A    between atoms: _206  and  _207
REMARK   87  A    between atoms: _209  and  _211
REMARK   88  A    between atoms: _211  and  _212
REMARK   89  A    between atoms: _211  and  _214
REMARK   90  A    between atoms: _214  and  _215
REMARK   91  A    between atoms: _217  and  _219
REMARK   92  A    between atoms: _219  and  _220
REMARK   93  A    between atoms: _219  and  _222
REMARK   94  A    between atoms: _222  and  _223
REMARK   95  A    between atoms: _225  and  _227
REMARK   96  A    between atoms: _227  and  _228
REMARK   97  A    between atoms: _227  and  _230
REMARK   98  A    between atoms: _230  and  _231
REMARK   99  A    between atoms: _233  and  _235
REMARK  100  A    between atoms: _235  and  _236
REMARK  101  A    between atoms: _235  and  _238
REMARK  102  A    between atoms: _238  and  _239
REMARK  103  A    between atoms: _245  and  _247
REMARK  104  A    between atoms: _247  and  _248
REMARK  105  A    between atoms: _247  and  _250
REMARK  106  A    between atoms: _250  and  _251
REMARK  107  A    between atoms: _254  and  _256
REMARK  108  A    between atoms: _256  and  _257
REMARK  109  A    between atoms: _256  and  _259
REMARK  110  A    between atoms: _259  and  _260
REMARK  111  A    between atoms: _263  and  _265
REMARK  112  A    between atoms: _265  and  _266
REMARK  113  A    between atoms: _265  and  _268
REMARK  114  A    between atoms: _268  and  _269
REMARK  115  A    between atoms: _272  and  _274
REMARK  116  A    between atoms: _274  and  _275
REMARK  117  A    between atoms: _277  and  _279
REMARK  118  A    between atoms: _279  and  _280
REMARK  119  A    between atoms: _279  and  _282
REMARK  120  A    between atoms: _282  and  _283
REMARK  121  A    between atoms: _286  and  _288
REMARK  122  A    between atoms: _288  and  _289
REMARK  123  A    between atoms: _288  and  _291
REMARK  124  A    between atoms: _291  and  _292
REMARK  125  A    between atoms: _295  and  _297
REMARK  126  A    between atoms: _297  and  _298
REMARK  127  A    between atoms: _300  and  _302
REMARK  128  A    between atoms: _302  and  _303
REMARK  129  A    between atoms: _302  and  _305
REMARK  130  A    between atoms: _305  and  _306
REMARK  131  A    between atoms: _309  and  _311
REMARK  132  A    between atoms: _311  and  _312
REMARK  133  A    between atoms: _315  and  _317
REMARK  134  A    between atoms: _317  and  _318
REMARK  135  A    between atoms: _317  and  _320
REMARK  136  A    between atoms: _320  and  _321
REMARK  137  A    between atoms: _327  and  _329
REMARK  138  A    between atoms: _329  and  _330
REMARK  139  A    between atoms: _329  and  _332
REMARK  140  A    between atoms: _332  and  _333
REMARK  141  A    between atoms: _336  and  _338
REMARK  142  A    between atoms: _338  and  _339
REMARK  143  A    between atoms: _338  and  _341
REMARK  144  A    between atoms: _341  and  _342
REMARK  145  A    between atoms: _345  and  _347
REMARK  146  A    between atoms: _347  and  _348
REMARK  147  A    between atoms: _347  and  _350
REMARK  148  A    between atoms: _350  and  _351
REMARK  149  A    between atoms: _356  and  _358
REMARK  150  A    between atoms: _358  and  _359
REMARK  151  A    between atoms: _358  and  _361
REMARK  152  A    between atoms: _361  and  _362
REMARK  153  A    between atoms: _365  and  _367
REMARK  154  A    between atoms: _367  and  _368
REMARK  155  A    between atoms: _367  and  _370
REMARK  156  A    between atoms: _370  and  _371
REMARK  157  A    between atoms: _371  and  _372
REMARK  158  A    between atoms: _377  and  _379
REMARK  159  A    between atoms: _379  and  _380
REMARK  160  A    between atoms: _382  and  _384
REMARK  161  A    between atoms: _384  and  _385
REMARK  162  A    between atoms: _384  and  _387
REMARK  163  A    between atoms: _387  and  _388
REMARK  164  A    between atoms: _394  and  _396
REMARK  165  A    between atoms: _396  and  _397
REMARK  166  A    between atoms: _396  and  _399
REMARK  167  A    between atoms: _399  and  _400
REMARK  168  A    between atoms: _403  and  _405
REMARK  169  A    between atoms: _405  and  _406
REMARK  170  A    between atoms: _409  and  _411
REMARK  171  A    between atoms: _411  and  _412
REMARK  172  A    between atoms: _411  and  _414
REMARK  173  A    between atoms: _414  and  _415
REMARK  174  A    between atoms: _418  and  _420
REMARK  175  A    between atoms: _420  and  _421
REMARK  176  A    between atoms: _420  and  _423
REMARK  177  A    between atoms: _423  and  _424
REMARK  178  A    between atoms: _427  and  _429
REMARK  179  A    between atoms: _429  and  _430
REMARK  180  A    between atoms: _432  and  _434
REMARK  181  A    between atoms: _434  and  _435
REMARK  182  A    between atoms: _434  and  _437
REMARK  183  A    between atoms: _437  and  _438
REMARK  184  A    between atoms: _441  and  _443
REMARK  185  A    between atoms: _443  and  _444
REMARK  186  A    between atoms: _443  and  _446
REMARK  187  A    between atoms: _446  and  _447
REMARK  188  A    between atoms: _450  and  _452
REMARK  189  A    between atoms: _452  and  _453
REMARK  190  A    between atoms: _452  and  _455
REMARK  191  A    between atoms: _455  and  _456
REMARK  192  A    between atoms: _459  and  _461
REMARK  193  A    between atoms: _461  and  _462
REMARK  194  A    between atoms: _461  and  _464
REMARK  195  A    between atoms: _464  and  _465
REMARK  196  A    between atoms: _470  and  _471
REMARK  197  A    between atoms: _473  and  _475
REMARK  198  A    between atoms: _475  and  _476
REMARK  199  A    between atoms: _478  and  _480
REMARK  200  A    between atoms: _480  and  _481
REMARK  201  A    between atoms: _480  and  _483
REMARK  202  A    between atoms: _483  and  _484
REMARK  203  A    between atoms: _490  and  _492
REMARK  204  A    between atoms: _492  and  _493
REMARK  205  A    between atoms: _492  and  _495
REMARK  206  A    between atoms: _495  and  _496
REMARK  207  A    between atoms: _502  and  _504
REMARK  208  A    between atoms: _504  and  _505
REMARK  209  A    between atoms: _507  and  _509
REMARK  210  A    between atoms: _509  and  _510
REMARK  211  A    between atoms: _512  and  _514
REMARK  212  A    between atoms: _514  and  _515
REMARK  213  A    between atoms: _514  and  _517
REMARK  214  A    between atoms: _517  and  _518
REMARK  215  A    between atoms: _518  and  _519
REMARK  216  A    between atoms: _524  and  _526
REMARK  217  A    between atoms: _526  and  _527
REMARK  218  A    between atoms: _529  and  _531
REMARK  219  A    between atoms: _531  and  _532
REMARK  220  A    between atoms: _531  and  _534
REMARK  221  A    between atoms: _534  and  _535
REMARK  222  A    between atoms: _538  and  _540
REMARK  223  A    between atoms: _540  and  _541
REMARK  224  A    between atoms: _543  and  _545
REMARK  225  A    between atoms: _545  and  _546
REMARK  226  A    between atoms: _545  and  _548
REMARK  227  A    between atoms: _548  and  _549
REMARK  228  A    between atoms: _552  and  _554
REMARK  229  A    between atoms: _554  and  _555
REMARK  230  A    between atoms: _554  and  _557
REMARK  231  A    between atoms: _557  and  _558
REMARK  232  A    between atoms: _563  and  _565
REMARK  233  A    between atoms: _565  and  _566
REMARK  234  A    between atoms: _565  and  _568
REMARK  235  A    between atoms: _568  and  _569
REMARK  236  A    between atoms: _572  and  _574
REMARK  237  A    between atoms: _574  and  _575
REMARK  238  A    between atoms: _577  and  _579
REMARK  239  A    between atoms: _579  and  _580
REMARK  240  A    between atoms: _579  and  _582
REMARK  241  A    between atoms: _582  and  _583
REMARK                            x       y       z     vdW  Elec       q    Type
REMARK                         _______ _______ _______ _____ _____    ______ ____
ROOT
ATOM      1  O   HOH     1      -3.662  25.323  18.626  0.00  0.00    +0.000 OA
ENDROOT
TORSDOF 0
REMARK  Name = ../refined-set-2016/1gvw/1gvw_pocket.pdb
REMARK  241 active torsions:
REMARK  status: ('A' for Active; 'I' for Inactive)
REMARK    1  A    between atoms: _1  and  _3
REMARK    2  A    between atoms: _3  and  _4
REMARK    3  A    between atoms: _3  and  _6
REMARK    4  A    between atoms: _6  and  _7
REMARK    5  A    between atoms: _10  and  _12
REMARK    6  A    between atoms: _12  and  _13
REMARK    7  A    between atoms: _12  and  _15
REMARK    8  A    between atoms: _15  and  _16
REMARK    9  A    between atoms: _19  and  _21
REMARK   10  A    between atoms: _21  and  _22
REMARK   11  A    between atoms: _21  and  _24
REMARK   12  A    between atoms: _24  and  _25
REMARK   13  A    between atoms: _28  and  _30
REMARK   14  A    between atoms: _30  and  _31
REMARK   15  A    between atoms: _30  and  _33
REMARK   16  A    between atoms: _33  and  _34
REMARK   17  A    between atoms: _37  and  _39
REMARK   18  A    between atoms: _39  and  _40
REMARK   19  A    between atoms: _39  and  _42
REMARK   20  A    between atoms: _42  and  _43
REMARK   21  A    between atoms: _46  and  _48
REMARK   22  A    between atoms: _48  and  _49
REMARK   23  A    between atoms: _52  and  _54
REMARK   24  A    between atoms: _54  and  _55
REMARK   25  A    between atoms: _54  and  _57
REMARK   26  A    between atoms: _57  and  _58
REMARK   27  A    between atoms: _63  and  _64
REMARK   28  A    between atoms: _66  and  _68
REMARK   29  A    between atoms: _68  and  _69
REMARK   30  A    between atoms: _68  and  _71
REMARK   31  A    between atoms: _71  and  _72
REMARK   32  A    between atoms: _75  and  _77
REMARK   33  A    between atoms: _77  and  _78
REMARK   34  A    between atoms: _77  and  _80
REMARK   35  A    between atoms: _80  and  _81
REMARK   36  A    between atoms: _87  and  _89
REMARK   37  A    between atoms: _89  and  _90
REMARK   38  A    between atoms: _89  and  _92
REMARK   39  A    between atoms: _92  and  _93
REMARK   40  A    between atoms: _96  and  _98
REMARK   41  A    between atoms: _98  and  _99
REMARK   42  A    between atoms: _98  and  _101
REMARK   43  A    between atoms: _101  and  _102
REMARK   44  A    between atoms: _105  and  _107
REMARK   45  A    between atoms: _107  and  _108
REMARK   46  A    between atoms: _110  and  _112
REMARK   47  A    between atoms: _112  and  _113
REMARK   48  A    between atoms: _112  and  _115
REMARK   49  A    between atoms: _115  and  _116
REMARK   50  A    between atoms: _118  and  _120
REMARK   51  A    between atoms: _120  and  _121
REMARK   52  A    between atoms: _120  and  _123
REMARK   53  A    between atoms: _123  and  _124
REMARK   54  A    between atoms: _126  and  _128
REMARK   55  A    between atoms: _128  and  _129
REMARK   56  A    between atoms: _128  and  _131
REMARK   57  A    between atoms: _131  and  _132
REMARK   58  A    between atoms: _135  and  _137
REMARK   59  A    between atoms: _137  and  _138
REMARK   60  A    between atoms: _137  and  _140
REMARK   61  A    between atoms: _140  and  _141
REMARK   62  A    between atoms: _151  and  _153
REMARK   63  A    between atoms: _153  and  _154
REMARK   64  A    between atoms: _153  and  _156
REMARK   65  A    between atoms: _156  and  _157
REMARK   66  A    between atoms: _159  and  _161
REMARK   67  A    between atoms: _161  and  _162
REMARK   68  A    between atoms: _161  and  _164
REMARK   69  A    between atoms: _164  and  _165
REMARK   70  A    between atoms: _168  and  _170
REMARK   71  A    between atoms: _170  and  _171
REMARK   72  A    between atoms: _170  and  _173
REMARK   73  A    between atoms: _173  and  _174
REMARK   74  A    between atoms: _176  and  _178
REMARK   75  A    between atoms: _178  and  _179
REMARK   76  A    between atoms: _178  and  _181
REMARK   77  A    between atoms: _181  and  _182
REMARK   78  A    between atoms: _187  and  _188
REMARK   79  A    between atoms: _190  and  _192
REMARK   80  A    between atoms: _192  and  _193
REMARK   81  A    between atoms: _195  and  _197
REMARK   82  A    between atoms: _197  and  _198
REMARK   83  A    between atoms: _197  and  _200
REMARK   84  A    between atoms: _200  and  _201
REMARK   85  A    between atoms: _204  and  _206
REMARK   86  A    between atoms: _206  and  _207
REMARK   87  A    between atoms: _209  and  _211
REMARK   88  A    between atoms: _211  and  _212
REMARK   89  A    between atoms: _211  and  _214
REMARK   90  A    between atoms: _214  and  _215
REMARK   91  A    between atoms: _217  and  _219
REMARK   92  A    between atoms: _219  and  _220
REMARK   93  A    between atoms: _219  and  _222
REMARK   94  A    between atoms: _222  and  _223
REMARK   95  A    between atoms: _225  and  _227
REMARK   96  A    between atoms: _227  and  _228
REMARK   97  A    between atoms: _227  and  _230
REMARK   98  A    between atoms: _230  and  _231
REMARK   99  A    between atoms: _233  and  _235
REMARK  100  A    between atoms: _235  and  _236
REMARK  101  A    between atoms: _235  and  _238
REMARK  102  A    between atoms: _238  and  _239
REMARK  103  A    between atoms: _245  and  _247
REMARK  104  A    between atoms: _247  and  _248
REMARK  105  A    between atoms: _247  and  _250
REMARK  106  A    between atoms: _250  and  _251
REMARK  107  A    between atoms: _254  and  _256
REMARK  108  A    between atoms: _256  and  _257
REMARK  109  A    between atoms: _256  and  _259
REMARK  110  A    between atoms: _259  and  _260
REMARK  111  A    between atoms: _263  and  _265
REMARK  112  A    between atoms: _265  and  _266
REMARK  113  A    between atoms: _265  and  _268
REMARK  114  A    between atoms: _268  and  _269
REMARK  115  A    between atoms: _272  and  _274
REMARK  116  A    between atoms: _274  and  _275
REMARK  117  A    between atoms: _277  and  _279
REMARK  118  A    between atoms: _279  and  _280
REMARK  119  A    between atoms: _279  and  _282
REMARK  120  A    between atoms: _282  and  _283
REMARK  121  A    between atoms: _286  and  _288
REMARK  122  A    between atoms: _288  and  _289
REMARK  123  A    between atoms: _288  and  _291
REMARK  124  A    between atoms: _291  and  _292
REMARK  125  A    between atoms: _295  and  _297
REMARK  126  A    between atoms: _297  and  _298
REMARK  127  A    between atoms: _300  and  _302
REMARK  128  A    between atoms: _302  and  _303
REMARK  129  A    between atoms: _302  and  _305
REMARK  130  A    between atoms: _305  and  _306
REMARK  131  A    between atoms: _309  and  _311
REMARK  132  A    between atoms: _311  and  _312
REMARK  133  A    between atoms: _315  and  _317
REMARK  134  A    between atoms: _317  and  _318
REMARK  135  A    between atoms: _317  and  _320
REMARK  136  A    between atoms: _320  and  _321
REMARK  137  A    between atoms: _327  and  _329
REMARK  138  A    between atoms: _329  and  _330
REMARK  139  A    between atoms: _329  and  _332
REMARK  140  A    between atoms: _332  and  _333
REMARK  141  A    between atoms: _336  and  _338
REMARK  142  A    between atoms: _338  and  _339
REMARK  143  A    between atoms: _338  and  _341
REMARK  144  A    between atoms: _341  and  _342
REMARK  145  A    between atoms: _345  and  _347
REMARK  146  A    between atoms: _347  and  _348
REMARK  147  A    between atoms: _347  and  _350
REMARK  148  A    between atoms: _350  and  _351
REMARK  149  A    between atoms: _356  and  _358
REMARK  150  A    between atoms: _358  and  _359
REMARK  151  A    between atoms: _358  and  _361
REMARK  152  A    between atoms: _361  and  _362
REMARK  153  A    between atoms: _365  and  _367
REMARK  154  A    between atoms: _367  and  _368
REMARK  155  A    between atoms: _367  and  _370
REMARK  156  A    between atoms: _370  and  _371
REMARK  157  A    between atoms: _371  and  _372
REMARK  158  A    between atoms: _377  and  _379
REMARK  159  A    between atoms: _379  and  _380
REMARK  160  A    between atoms: _382  and  _384
REMARK  161  A    between atoms: _384  and  _385
REMARK  162  A    between atoms: _384  and  _387
REMARK  163  A    between atoms: _387  and  _388
REMARK  164  A    between atoms: _394  and  _396
REMARK  165  A    between atoms: _396  and  _397
REMARK  166  A    between atoms: _396  and  _399
REMARK  167  A    between atoms: _399  and  _400
REMARK  168  A    between atoms: _403  and  _405
REMARK  169  A    between atoms: _405  and  _406
REMARK  170  A    between atoms: _409  and  _411
REMARK  171  A    between atoms: _411  and  _412
REMARK  172  A    between atoms: _411  and  _414
REMARK  173  A    between atoms: _414  and  _415
REMARK  174  A    between atoms: _418  and  _420
REMARK  175  A    between atoms: _420  and  _421
REMARK  176  A    between atoms: _420  and  _423
REMARK  177  A    between atoms: _423  and  _424
REMARK  178  A    between atoms: _427  and  _429
REMARK  179  A    between atoms: _429  and  _430
REMARK  180  A    between atoms: _432  and  _434
REMARK  181  A    between atoms: _434  and  _435
REMARK  182  A    between atoms: _434  and  _437
REMARK  183  A    between atoms: _437  and  _438
REMARK  184  A    between atoms: _441  and  _443
REMARK  185  A    between atoms: _443  and  _444
REMARK  186  A    between atoms: _443  and  _446
REMARK  187  A    between atoms: _446  and  _447
REMARK  188  A    between atoms: _450  and  _452
REMARK  189  A    between atoms: _452  and  _453
REMARK  190  A    between atoms: _452  and  _455
REMARK  191  A    between atoms: _455  and  _456
REMARK  192  A    between atoms: _459  and  _461
REMARK  193  A    between atoms: _461  and  _462
REMARK  194  A    between atoms: _461  and  _464
REMARK  195  A    between atoms: _464  and  _465
REMARK  196  A    between atoms: _470  and  _471
REMARK  197  A    between atoms: _473  and  _475
REMARK  198  A    between atoms: _475  and  _476
REMARK  199  A    between atoms: _478  and  _480
REMARK  200  A    between atoms: _480  and  _481
REMARK  201  A    between atoms: _480  and  _483
REMARK  202  A    between atoms: _483  and  _484
REMARK  203  A    between atoms: _490  and  _492
REMARK  204  A    between atoms: _492  and  _493
REMARK  205  A    between atoms: _492  and  _495
REMARK  206  A    between atoms: _495  and  _496
REMARK  207  A    between atoms: _502  and  _504
REMARK  208  A    between atoms: _504  and  _505
REMARK  209  A    between atoms: _507  and  _509
REMARK  210  A    between atoms: _509  and  _510
REMARK  211  A    between atoms: _512  and  _514
REMARK  212  A    between atoms: _514  and  _515
REMARK  213  A    between atoms: _514  and  _517
REMARK  214  A    between atoms: _517  and  _518
REMARK  215  A    between atoms: _518  and  _519
REMARK  216  A    between atoms: _524  and  _526
REMARK  217  A    between atoms: _526  and  _527
REMARK  218  A    between atoms: _529  and  _531
REMARK  219  A    between atoms: _531  and  _532
REMARK  220  A    between atoms: _531  and  _534
REMARK  221  A    between atoms: _534  and  _535
REMARK  222  A    between atoms: _538  and  _540
REMARK  223  A    between atoms: _540  and  _541
REMARK  224  A    between atoms: _543  and  _545
REMARK  225  A    between atoms: _545  and  _546
REMARK  226  A    between atoms: _545  and  _548
REMARK  227  A    between atoms: _548  and  _549
REMARK  228  A    between atoms: _552  and  _554
REMARK  229  A    between atoms: _554  and  _555
REMARK  230  A    between atoms: _554  and  _557
REMARK  231  A    between atoms: _557  and  _558
REMARK  232  A    between atoms: _563  and  _565
REMARK  233  A    between atoms: _565  and  _566
REMARK  234  A    between atoms: _565  and  _568
REMARK  235  A    between atoms: _568  and  _569
REMARK  236  A    between atoms: _572  and  _574
REMARK  237  A    between atoms: _574  and  _575
REMARK  238  A    between atoms: _577  and  _579
REMARK  239  A    between atoms: _579  and  _580
REMARK  240  A    between atoms: _579  and  _582
REMARK  241  A    between atoms: _582  and  _583
REMARK                            x       y       z     vdW  Elec       q    Type
REMARK                         _______ _______ _______ _____ _____    ______ ____
ROOT
ATOM      1  O   HOH     1      -3.278  24.541  23.412  0.00  0.00    +0.000 OA
ENDROOT
TORSDOF 0
REMARK  Name = ../refined-set-2016/1gvw/1gvw_pocket.pdb
REMARK  241 active torsions:
REMARK  status: ('A' for Active; 'I' for Inactive)
REMARK    1  A    between atoms: _1  and  _3
REMARK    2  A    between atoms: _3  and  _4
REMARK    3  A    between atoms: _3  and  _6
REMARK    4  A    between atoms: _6  and  _7
REMARK    5  A    between atoms: _10  and  _12
REMARK    6  A    between atoms: _12  and  _13
REMARK    7  A    between atoms: _12  and  _15
REMARK    8  A    between atoms: _15  and  _16
REMARK    9  A    between atoms: _19  and  _21
REMARK   10  A    between atoms: _21  and  _22
REMARK   11  A    between atoms: _21  and  _24
REMARK   12  A    between atoms: _24  and  _25
REMARK   13  A    between atoms: _28  and  _30
REMARK   14  A    between atoms: _30  and  _31
REMARK   15  A    between atoms: _30  and  _33
REMARK   16  A    between atoms: _33  and  _34
REMARK   17  A    between atoms: _37  and  _39
REMARK   18  A    between atoms: _39  and  _40
REMARK   19  A    between atoms: _39  and  _42
REMARK   20  A    between atoms: _42  and  _43
REMARK   21  A    between atoms: _46  and  _48
REMARK   22  A    between atoms: _48  and  _49
REMARK   23  A    between atoms: _52  and  _54
REMARK   24  A    between atoms: _54  and  _55
REMARK   25  A    between atoms: _54  and  _57
REMARK   26  A    between atoms: _57  and  _58
REMARK   27  A    between atoms: _63  and  _64
REMARK   28  A    between atoms: _66  and  _68
REMARK   29  A    between atoms: _68  and  _69
REMARK   30  A    between atoms: _68  and  _71
REMARK   31  A    between atoms: _71  and  _72
REMARK   32  A    between atoms: _75  and  _77
REMARK   33  A    between atoms: _77  and  _78
REMARK   34  A    between atoms: _77  and  _80
REMARK   35  A    between atoms: _80  and  _81
REMARK   36  A    between atoms: _87  and  _89
REMARK   37  A    between atoms: _89  and  _90
REMARK   38  A    between atoms: _89  and  _92
REMARK   39  A    between atoms: _92  and  _93
REMARK   40  A    between atoms: _96  and  _98
REMARK   41  A    between atoms: _98  and  _99
REMARK   42  A    between atoms: _98  and  _101
REMARK   43  A    between atoms: _101  and  _102
REMARK   44  A    between atoms: _105  and  _107
REMARK   45  A    between atoms: _107  and  _108
REMARK   46  A    between atoms: _110  and  _112
REMARK   47  A    between atoms: _112  and  _113
REMARK   48  A    between atoms: _112  and  _115
REMARK   49  A    between atoms: _115  and  _116
REMARK   50  A    between atoms: _118  and  _120
REMARK   51  A    between atoms: _120  and  _121
REMARK   52  A    between atoms: _120  and  _123
REMARK   53  A    between atoms: _123  and  _124
REMARK   54  A    between atoms: _126  and  _128
REMARK   55  A    between atoms: _128  and  _129
REMARK   56  A    between atoms: _128  and  _131
REMARK   57  A    between atoms: _131  and  _132
REMARK   58  A    between atoms: _135  and  _137
REMARK   59  A    between atoms: _137  and  _138
REMARK   60  A    between atoms: _137  and  _140
REMARK   61  A    between atoms: _140  and  _141
REMARK   62  A    between atoms: _151  and  _153
REMARK   63  A    between atoms: _153  and  _154
REMARK   64  A    between atoms: _153  and  _156
REMARK   65  A    between atoms: _156  and  _157
REMARK   66  A    between atoms: _159  and  _161
REMARK   67  A    between atoms: _161  and  _162
REMARK   68  A    between atoms: _161  and  _164
REMARK   69  A    between atoms: _164  and  _165
REMARK   70  A    between atoms: _168  and  _170
REMARK   71  A    between atoms: _170  and  _171
REMARK   72  A    between atoms: _170  and  _173
REMARK   73  A    between atoms: _173  and  _174
REMARK   74  A    between atoms: _176  and  _178
REMARK   75  A    between atoms: _178  and  _179
REMARK   76  A    between atoms: _178  and  _181
REMARK   77  A    between atoms: _181  and  _182
REMARK   78  A    between atoms: _187  and  _188
REMARK   79  A    between atoms: _190  and  _192
REMARK   80  A    between atoms: _192  and  _193
REMARK   81  A    between atoms: _195  and  _197
REMARK   82  A    between atoms: _197  and  _198
REMARK   83  A    between atoms: _197  and  _200
REMARK   84  A    between atoms: _200  and  _201
REMARK   85  A    between atoms: _204  and  _206
REMARK   86  A    between atoms: _206  and  _207
REMARK   87  A    between atoms: _209  and  _211
REMARK   88  A    between atoms: _211  and  _212
REMARK   89  A    between atoms: _211  and  _214
REMARK   90  A    between atoms: _214  and  _215
REMARK   91  A    between atoms: _217  and  _219
REMARK   92  A    between atoms: _219  and  _220
REMARK   93  A    between atoms: _219  and  _222
REMARK   94  A    between atoms: _222  and  _223
REMARK   95  A    between atoms: _225  and  _227
REMARK   96  A    between atoms: _227  and  _228
REMARK   97  A    between atoms: _227  and  _230
REMARK   98  A    between atoms: _230  and  _231
REMARK   99  A    between atoms: _233  and  _235
REMARK  100  A    between atoms: _235  and  _236
REMARK  101  A    between atoms: _235  and  _238
REMARK  102  A    between atoms: _238  and  _239
REMARK  103  A    between atoms: _245  and  _247
REMARK  104  A    between atoms: _247  and  _248
REMARK  105  A    between atoms: _247  and  _250
REMARK  106  A    between atoms: _250  and  _251
REMARK  107  A    between atoms: _254  and  _256
REMARK  108  A    between atoms: _256  and  _257
REMARK  109  A    between atoms: _256  and  _259
REMARK  110  A    between atoms: _259  and  _260
REMARK  111  A    between atoms: _263  and  _265
REMARK  112  A    between atoms: _265  and  _266
REMARK  113  A    between atoms: _265  and  _268
REMARK  114  A    between atoms: _268  and  _269
REMARK  115  A    between atoms: _272  and  _274
REMARK  116  A    between atoms: _274  and  _275
REMARK  117  A    between atoms: _277  and  _279
REMARK  118  A    between atoms: _279  and  _280
REMARK  119  A    between atoms: _279  and  _282
REMARK  120  A    between atoms: _282  and  _283
REMARK  121  A    between atoms: _286  and  _288
REMARK  122  A    between atoms: _288  and  _289
REMARK  123  A    between atoms: _288  and  _291
REMARK  124  A    between atoms: _291  and  _292
REMARK  125  A    between atoms: _295  and  _297
REMARK  126  A    between atoms: _297  and  _298
REMARK  127  A    between atoms: _300  and  _302
REMARK  128  A    between atoms: _302  and  _303
REMARK  129  A    between atoms: _302  and  _305
REMARK  130  A    between atoms: _305  and  _306
REMARK  131  A    between atoms: _309  and  _311
REMARK  132  A    between atoms: _311  and  _312
REMARK  133  A    between atoms: _315  and  _317
REMARK  134  A    between atoms: _317  and  _318
REMARK  135  A    between atoms: _317  and  _320
REMARK  136  A    between atoms: _320  and  _321
REMARK  137  A    between atoms: _327  and  _329
REMARK  138  A    between atoms: _329  and  _330
REMARK  139  A    between atoms: _329  and  _332
REMARK  140  A    between atoms: _332  and  _333
REMARK  141  A    between atoms: _336  and  _338
REMARK  142  A    between atoms: _338  and  _339
REMARK  143  A    between atoms: _338  and  _341
REMARK  144  A    between atoms: _341  and  _342
REMARK  145  A    between atoms: _345  and  _347
REMARK  146  A    between atoms: _347  and  _348
REMARK  147  A    between atoms: _347  and  _350
REMARK  148  A    between atoms: _350  and  _351
REMARK  149  A    between atoms: _356  and  _358
REMARK  150  A    between atoms: _358  and  _359
REMARK  151  A    between atoms: _358  and  _361
REMARK  152  A    between atoms: _361  and  _362
REMARK  153  A    between atoms: _365  and  _367
REMARK  154  A    between atoms: _367  and  _368
REMARK  155  A    between atoms: _367  and  _370
REMARK  156  A    between atoms: _370  and  _371
REMARK  157  A    between atoms: _371  and  _372
REMARK  158  A    between atoms: _377  and  _379
REMARK  159  A    between atoms: _379  and  _380
REMARK  160  A    between atoms: _382  and  _384
REMARK  161  A    between atoms: _384  and  _385
REMARK  162  A    between atoms: _384  and  _387
REMARK  163  A    between atoms: _387  and  _388
REMARK  164  A    between atoms: _394  and  _396
REMARK  165  A    between atoms: _396  and  _397
REMARK  166  A    between atoms: _396  and  _399
REMARK  167  A    between atoms: _399  and  _400
REMARK  168  A    between atoms: _403  and  _405
REMARK  169  A    between atoms: _405  and  _406
REMARK  170  A    between atoms: _409  and  _411
REMARK  171  A    between atoms: _411  and  _412
REMARK  172  A    between atoms: _411  and  _414
REMARK  173  A    between atoms: _414  and  _415
REMARK  174  A    between atoms: _418  and  _420
REMARK  175  A    between atoms: _420  and  _421
REMARK  176  A    between atoms: _420  and  _423
REMARK  177  A    between atoms: _423  and  _424
REMARK  178  A    between atoms: _427  and  _429
REMARK  179  A    between atoms: _429  and  _430
REMARK  180  A    between atoms: _432  and  _434
REMARK  181  A    between atoms: _434  and  _435
REMARK  182  A    between atoms: _434  and  _437
REMARK  183  A    between atoms: _437  and  _438
REMARK  184  A    between atoms: _441  and  _443
REMARK  185  A    between atoms: _443  and  _444
REMARK  186  A    between atoms: _443  and  _446
REMARK  187  A    between atoms: _446  and  _447
REMARK  188  A    between atoms: _450  and  _452
REMARK  189  A    between atoms: _452  and  _453
REMARK  190  A    between atoms: _452  and  _455
REMARK  191  A    between atoms: _455  and  _456
REMARK  192  A    between atoms: _459  and  _461
REMARK  193  A    between atoms: _461  and  _462
REMARK  194  A    between atoms: _461  and  _464
REMARK  195  A    between atoms: _464  and  _465
REMARK  196  A    between atoms: _470  and  _471
REMARK  197  A    between atoms: _473  and  _475
REMARK  198  A    between atoms: _475  and  _476
REMARK  199  A    between atoms: _478  and  _480
REMARK  200  A    between atoms: _480  and  _481
REMARK  201  A    between atoms: _480  and  _483
REMARK  202  A    between atoms: _483  and  _484
REMARK  203  A    between atoms: _490  and  _492
REMARK  204  A    between atoms: _492  and  _493
REMARK  205  A    between atoms: _492  and  _495
REMARK  206  A    between atoms: _495  and  _496
REMARK  207  A    between atoms: _502  and  _504
REMARK  208  A    between atoms: _504  and  _505
REMARK  209  A    between atoms: _507  and  _509
REMARK  210  A    between atoms: _509  and  _510
REMARK  211  A    between atoms: _512  and  _514
REMARK  212  A    between atoms: _514  and  _515
REMARK  213  A    between atoms: _514  and  _517
REMARK  214  A    between atoms: _517  and  _518
REMARK  215  A    between atoms: _518  and  _519
REMARK  216  A    between atoms: _524  and  _526
REMARK  217  A    between atoms: _526  and  _527
REMARK  218  A    between atoms: _529  and  _531
REMARK  219  A    between atoms: _531  and  _532
REMARK  220  A    between atoms: _531  and  _534
REMARK  221  A    between atoms: _534  and  _535
REMARK  222  A    between atoms: _538  and  _540
REMARK  223  A    between atoms: _540  and  _541
REMARK  224  A    between atoms: _543  and  _545
REMARK  225  A    between atoms: _545  and  _546
REMARK  226  A    between atoms: _545  and  _548
REMARK  227  A    between atoms: _548  and  _549
REMARK  228  A    between atoms: _552  and  _554
REMARK  229  A    between atoms: _554  and  _555
REMARK  230  A    between atoms: _554  and  _557
REMARK  231  A    between atoms: _557  and  _558
REMARK  232  A    between atoms: _563  and  _565
REMARK  233  A    between atoms: _565  and  _566
REMARK  234  A    between atoms: _565  and  _568
REMARK  235  A    between atoms: _568  and  _569
REMARK  236  A    between atoms: _572  and  _574
REMARK  237  A    between atoms: _574  and  _575
REMARK  238  A    between atoms: _577  and  _579
REMARK  239  A    between atoms: _579  and  _580
REMARK  240  A    between atoms: _579  and  _582
REMARK  241  A    between atoms: _582  and  _583
REMARK                            x       y       z     vdW  Elec       q    Type
REMARK                         _______ _______ _______ _____ _____    ______ ____
ROOT
ATOM      1  O   HOH     1      -6.949  26.616  21.287  0.00  0.00    +0.000 OA
ENDROOT
TORSDOF 0
REMARK  Name = ../refined-set-2016/1gvw/1gvw_pocket.pdb
REMARK  241 active torsions:
REMARK  status: ('A' for Active; 'I' for Inactive)
REMARK    1  A    between atoms: _1  and  _3
REMARK    2  A    between atoms: _3  and  _4
REMARK    3  A    between atoms: _3  and  _6
REMARK    4  A    between atoms: _6  and  _7
REMARK    5  A    between atoms: _10  and  _12
REMARK    6  A    between atoms: _12  and  _13
REMARK    7  A    between atoms: _12  and  _15
REMARK    8  A    between atoms: _15  and  _16
REMARK    9  A    between atoms: _19  and  _21
REMARK   10  A    between atoms: _21  and  _22
REMARK   11  A    between atoms: _21  and  _24
REMARK   12  A    between atoms: _24  and  _25
REMARK   13  A    between atoms: _28  and  _30
REMARK   14  A    between atoms: _30  and  _31
REMARK   15  A    between atoms: _30  and  _33
REMARK   16  A    between atoms: _33  and  _34
REMARK   17  A    between atoms: _37  and  _39
REMARK   18  A    between atoms: _39  and  _40
REMARK   19  A    between atoms: _39  and  _42
REMARK   20  A    between atoms: _42  and  _43
REMARK   21  A    between atoms: _46  and  _48
REMARK   22  A    between atoms: _48  and  _49
REMARK   23  A    between atoms: _52  and  _54
REMARK   24  A    between atoms: _54  and  _55
REMARK   25  A    between atoms: _54  and  _57
REMARK   26  A    between atoms: _57  and  _58
REMARK   27  A    between atoms: _63  and  _64
REMARK   28  A    between atoms: _66  and  _68
REMARK   29  A    between atoms: _68  and  _69
REMARK   30  A    between atoms: _68  and  _71
REMARK   31  A    between atoms: _71  and  _72
REMARK   32  A    between atoms: _75  and  _77
REMARK   33  A    between atoms: _77  and  _78
REMARK   34  A    between atoms: _77  and  _80
REMARK   35  A    between atoms: _80  and  _81
REMARK   36  A    between atoms: _87  and  _89
REMARK   37  A    between atoms: _89  and  _90
REMARK   38  A    between atoms: _89  and  _92
REMARK   39  A    between atoms: _92  and  _93
REMARK   40  A    between atoms: _96  and  _98
REMARK   41  A    between atoms: _98  and  _99
REMARK   42  A    between atoms: _98  and  _101
REMARK   43  A    between atoms: _101  and  _102
REMARK   44  A    between atoms: _105  and  _107
REMARK   45  A    between atoms: _107  and  _108
REMARK   46  A    between atoms: _110  and  _112
REMARK   47  A    between atoms: _112  and  _113
REMARK   48  A    between atoms: _112  and  _115
REMARK   49  A    between atoms: _115  and  _116
REMARK   50  A    between atoms: _118  and  _120
REMARK   51  A    between atoms: _120  and  _121
REMARK   52  A    between atoms: _120  and  _123
REMARK   53  A    between atoms: _123  and  _124
REMARK   54  A    between atoms: _126  and  _128
REMARK   55  A    between atoms: _128  and  _129
REMARK   56  A    between atoms: _128  and  _131
REMARK   57  A    between atoms: _131  and  _132
REMARK   58  A    between atoms: _135  and  _137
REMARK   59  A    between atoms: _137  and  _138
REMARK   60  A    between atoms: _137  and  _140
REMARK   61  A    between atoms: _140  and  _141
REMARK   62  A    between atoms: _151  and  _153
REMARK   63  A    between atoms: _153  and  _154
REMARK   64  A    between atoms: _153  and  _156
REMARK   65  A    between atoms: _156  and  _157
REMARK   66  A    between atoms: _159  and  _161
REMARK   67  A    between atoms: _161  and  _162
REMARK   68  A    between atoms: _161  and  _164
REMARK   69  A    between atoms: _164  and  _165
REMARK   70  A    between atoms: _168  and  _170
REMARK   71  A    between atoms: _170  and  _171
REMARK   72  A    between atoms: _170  and  _173
REMARK   73  A    between atoms: _173  and  _174
REMARK   74  A    between atoms: _176  and  _178
REMARK   75  A    between atoms: _178  and  _179
REMARK   76  A    between atoms: _178  and  _181
REMARK   77  A    between atoms: _181  and  _182
REMARK   78  A    between atoms: _187  and  _188
REMARK   79  A    between atoms: _190  and  _192
REMARK   80  A    between atoms: _192  and  _193
REMARK   81  A    between atoms: _195  and  _197
REMARK   82  A    between atoms: _197  and  _198
REMARK   83  A    between atoms: _197  and  _200
REMARK   84  A    between atoms: _200  and  _201
REMARK   85  A    between atoms: _204  and  _206
REMARK   86  A    between atoms: _206  and  _207
REMARK   87  A    between atoms: _209  and  _211
REMARK   88  A    between atoms: _211  and  _212
REMARK   89  A    between atoms: _211  and  _214
REMARK   90  A    between atoms: _214  and  _215
REMARK   91  A    between atoms: _217  and  _219
REMARK   92  A    between atoms: _219  and  _220
REMARK   93  A    between atoms: _219  and  _222
REMARK   94  A    between atoms: _222  and  _223
REMARK   95  A    between atoms: _225  and  _227
REMARK   96  A    between atoms: _227  and  _228
REMARK   97  A    between atoms: _227  and  _230
REMARK   98  A    between atoms: _230  and  _231
REMARK   99  A    between atoms: _233  and  _235
REMARK  100  A    between atoms: _235  and  _236
REMARK  101  A    between atoms: _235  and  _238
REMARK  102  A    between atoms: _238  and  _239
REMARK  103  A    between atoms: _245  and  _247
REMARK  104  A    between atoms: _247  and  _248
REMARK  105  A    between atoms: _247  and  _250
REMARK  106  A    between atoms: _250  and  _251
REMARK  107  A    between atoms: _254  and  _256
REMARK  108  A    between atoms: _256  and  _257
REMARK  109  A    between atoms: _256  and  _259
REMARK  110  A    between atoms: _259  and  _260
REMARK  111  A    between atoms: _263  and  _265
REMARK  112  A    between atoms: _265  and  _266
REMARK  113  A    between atoms: _265  and  _268
REMARK  114  A    between atoms: _268  and  _269
REMARK  115  A    between atoms: _272  and  _274
REMARK  116  A    between atoms: _274  and  _275
REMARK  117  A    between atoms: _277  and  _279
REMARK  118  A    between atoms: _279  and  _280
REMARK  119  A    between atoms: _279  and  _282
REMARK  120  A    between atoms: _282  and  _283
REMARK  121  A    between atoms: _286  and  _288
REMARK  122  A    between atoms: _288  and  _289
REMARK  123  A    between atoms: _288  and  _291
REMARK  124  A    between atoms: _291  and  _292
REMARK  125  A    between atoms: _295  and  _297
REMARK  126  A    between atoms: _297  and  _298
REMARK  127  A    between atoms: _300  and  _302
REMARK  128  A    between atoms: _302  and  _303
REMARK  129  A    between atoms: _302  and  _305
REMARK  130  A    between atoms: _305  and  _306
REMARK  131  A    between atoms: _309  and  _311
REMARK  132  A    between atoms: _311  and  _312
REMARK  133  A    between atoms: _315  and  _317
REMARK  134  A    between atoms: _317  and  _318
REMARK  135  A    between atoms: _317  and  _320
REMARK  136  A    between atoms: _320  and  _321
REMARK  137  A    between atoms: _327  and  _329
REMARK  138  A    between atoms: _329  and  _330
REMARK  139  A    between atoms: _329  and  _332
REMARK  140  A    between atoms: _332  and  _333
REMARK  141  A    between atoms: _336  and  _338
REMARK  142  A    between atoms: _338  and  _339
REMARK  143  A    between atoms: _338  and  _341
REMARK  144  A    between atoms: _341  and  _342
REMARK  145  A    between atoms: _345  and  _347
REMARK  146  A    between atoms: _347  and  _348
REMARK  147  A    between atoms: _347  and  _350
REMARK  148  A    between atoms: _350  and  _351
REMARK  149  A    between atoms: _356  and  _358
REMARK  150  A    between atoms: _358  and  _359
REMARK  151  A    between atoms: _358  and  _361
REMARK  152  A    between atoms: _361  and  _362
REMARK  153  A    between atoms: _365  and  _367
REMARK  154  A    between atoms: _367  and  _368
REMARK  155  A    between atoms: _367  and  _370
REMARK  156  A    between atoms: _370  and  _371
REMARK  157  A    between atoms: _371  and  _372
REMARK  158  A    between atoms: _377  and  _379
REMARK  159  A    between atoms: _379  and  _380
REMARK  160  A    between atoms: _382  and  _384
REMARK  161  A    between atoms: _384  and  _385
REMARK  162  A    between atoms: _384  and  _387
REMARK  163  A    between atoms: _387  and  _388
REMARK  164  A    between atoms: _394  and  _396
REMARK  165  A    between atoms: _396  and  _397
REMARK  166  A    between atoms: _396  and  _399
REMARK  167  A    between atoms: _399  and  _400
REMARK  168  A    between atoms: _403  and  _405
REMARK  169  A    between atoms: _405  and  _406
REMARK  170  A    between atoms: _409  and  _411
REMARK  171  A    between atoms: _411  and  _412
REMARK  172  A    between atoms: _411  and  _414
REMARK  173  A    between atoms: _414  and  _415
REMARK  174  A    between atoms: _418  and  _420
REMARK  175  A    between atoms: _420  and  _421
REMARK  176  A    between atoms: _420  and  _423
REMARK  177  A    between atoms: _423  and  _424
REMARK  178  A    between atoms: _427  and  _429
REMARK  179  A    between atoms: _429  and  _430
REMARK  180  A    between atoms: _432  and  _434
REMARK  181  A    between atoms: _434  and  _435
REMARK  182  A    between atoms: _434  and  _437
REMARK  183  A    between atoms: _437  and  _438
REMARK  184  A    between atoms: _441  and  _443
REMARK  185  A    between atoms: _443  and  _444
REMARK  186  A    between atoms: _443  and  _446
REMARK  187  A    between atoms: _446  and  _447
REMARK  188  A    between atoms: _450  and  _452
REMARK  189  A    between atoms: _452  and  _453
REMARK  190  A    between atoms: _452  and  _455
REMARK  191  A    between atoms: _455  and  _456
REMARK  192  A    between atoms: _459  and  _461
REMARK  193  A    between atoms: _461  and  _462
REMARK  194  A    between atoms: _461  and  _464
REMARK  195  A    between atoms: _464  and  _465
REMARK  196  A    between atoms: _470  and  _471
REMARK  197  A    between atoms: _473  and  _475
REMARK  198  A    between atoms: _475  and  _476
REMARK  199  A    between atoms: _478  and  _480
REMARK  200  A    between atoms: _480  and  _481
REMARK  201  A    between atoms: _480  and  _483
REMARK  202  A    between atoms: _483  and  _484
REMARK  203  A    between atoms: _490  and  _492
REMARK  204  A    between atoms: _492  and  _493
REMARK  205  A    between atoms: _492  and  _495
REMARK  206  A    between atoms: _495  and  _496
REMARK  207  A    between atoms: _502  and  _504
REMARK  208  A    between atoms: _504  and  _505
REMARK  209  A    between atoms: _507  and  _509
REMARK  210  A    between atoms: _509  and  _510
REMARK  211  A    between atoms: _512  and  _514
REMARK  212  A    between atoms: _514  and  _515
REMARK  213  A    between atoms: _514  and  _517
REMARK  214  A    between atoms: _517  and  _518
REMARK  215  A    between atoms: _518  and  _519
REMARK  216  A    between atoms: _524  and  _526
REMARK  217  A    between atoms: _526  and  _527
REMARK  218  A    between atoms: _529  and  _531
REMARK  219  A    between atoms: _531  and  _532
REMARK  220  A    between atoms: _531  and  _534
REMARK  221  A    between atoms: _534  and  _535
REMARK  222  A    between atoms: _538  and  _540
REMARK  223  A    between atoms: _540  and  _541
REMARK  224  A    between atoms: _543  and  _545
REMARK  225  A    between atoms: _545  and  _546
REMARK  226  A    between atoms: _545  and  _548
REMARK  227  A    between atoms: _548  and  _549
REMARK  228  A    between atoms: _552  and  _554
REMARK  229  A    between atoms: _554  and  _555
REMARK  230  A    between atoms: _554  and  _557
REMARK  231  A    between atoms: _557  and  _558
REMARK  232  A    between atoms: _563  and  _565
REMARK  233  A    between atoms: _565  and  _566
REMARK  234  A    between atoms: _565  and  _568
REMARK  235  A    between atoms: _568  and  _569
REMARK  236  A    between atoms: _572  and  _574
REMARK  237  A    between atoms: _574  and  _575
REMARK  238  A    between atoms: _577  and  _579
REMARK  239  A    between atoms: _579  and  _580
REMARK  240  A    between atoms: _579  and  _582
REMARK  241  A    between atoms: _582  and  _583
REMARK                            x       y       z     vdW  Elec       q    Type
REMARK                         _______ _______ _______ _____ _____    ______ ____
ROOT
ATOM      1  O   HOH     1      -6.170  24.175  18.289  0.00  0.00    +0.000 OA
ENDROOT
TORSDOF 0
REMARK  Name = ../refined-set-2016/1gvw/1gvw_pocket.pdb
REMARK  241 active torsions:
REMARK  status: ('A' for Active; 'I' for Inactive)
REMARK    1  A    between atoms: _1  and  _3
REMARK    2  A    between atoms: _3  and  _4
REMARK    3  A    between atoms: _3  and  _6
REMARK    4  A    between atoms: _6  and  _7
REMARK    5  A    between atoms: _10  and  _12
REMARK    6  A    between atoms: _12  and  _13
REMARK    7  A    between atoms: _12  and  _15
REMARK    8  A    between atoms: _15  and  _16
REMARK    9  A    between atoms: _19  and  _21
REMARK   10  A    between atoms: _21  and  _22
REMARK   11  A    between atoms: _21  and  _24
REMARK   12  A    between atoms: _24  and  _25
REMARK   13  A    between atoms: _28  and  _30
REMARK   14  A    between atoms: _30  and  _31
REMARK   15  A    between atoms: _30  and  _33
REMARK   16  A    between atoms: _33  and  _34
REMARK   17  A    between atoms: _37  and  _39
REMARK   18  A    between atoms: _39  and  _40
REMARK   19  A    between atoms: _39  and  _42
REMARK   20  A    between atoms: _42  and  _43
REMARK   21  A    between atoms: _46  and  _48
REMARK   22  A    between atoms: _48  and  _49
REMARK   23  A    between atoms: _52  and  _54
REMARK   24  A    between atoms: _54  and  _55
REMARK   25  A    between atoms: _54  and  _57
REMARK   26  A    between atoms: _57  and  _58
REMARK   27  A    between atoms: _63  and  _64
REMARK   28  A    between atoms: _66  and  _68
REMARK   29  A    between atoms: _68  and  _69
REMARK   30  A    between atoms: _68  and  _71
REMARK   31  A    between atoms: _71  and  _72
REMARK   32  A    between atoms: _75  and  _77
REMARK   33  A    between atoms: _77  and  _78
REMARK   34  A    between atoms: _77  and  _80
REMARK   35  A    between atoms: _80  and  _81
REMARK   36  A    between atoms: _87  and  _89
REMARK   37  A    between atoms: _89  and  _90
REMARK   38  A    between atoms: _89  and  _92
REMARK   39  A    between atoms: _92  and  _93
REMARK   40  A    between atoms: _96  and  _98
REMARK   41  A    between atoms: _98  and  _99
REMARK   42  A    between atoms: _98  and  _101
REMARK   43  A    between atoms: _101  and  _102
REMARK   44  A    between atoms: _105  and  _107
REMARK   45  A    between atoms: _107  and  _108
REMARK   46  A    between atoms: _110  and  _112
REMARK   47  A    between atoms: _112  and  _113
REMARK   48  A    between atoms: _112  and  _115
REMARK   49  A    between atoms: _115  and  _116
REMARK   50  A    between atoms: _118  and  _120
REMARK   51  A    between atoms: _120  and  _121
REMARK   52  A    between atoms: _120  and  _123
REMARK   53  A    between atoms: _123  and  _124
REMARK   54  A    between atoms: _126  and  _128
REMARK   55  A    between atoms: _128  and  _129
REMARK   56  A    between atoms: _128  and  _131
REMARK   57  A    between atoms: _131  and  _132
REMARK   58  A    between atoms: _135  and  _137
REMARK   59  A    between atoms: _137  and  _138
REMARK   60  A    between atoms: _137  and  _140
REMARK   61  A    between atoms: _140  and  _141
REMARK   62  A    between atoms: _151  and  _153
REMARK   63  A    between atoms: _153  and  _154
REMARK   64  A    between atoms: _153  and  _156
REMARK   65  A    between atoms: _156  and  _157
REMARK   66  A    between atoms: _159  and  _161
REMARK   67  A    between atoms: _161  and  _162
REMARK   68  A    between atoms: _161  and  _164
REMARK   69  A    between atoms: _164  and  _165
REMARK   70  A    between atoms: _168  and  _170
REMARK   71  A    between atoms: _170  and  _171
REMARK   72  A    between atoms: _170  and  _173
REMARK   73  A    between atoms: _173  and  _174
REMARK   74  A    between atoms: _176  and  _178
REMARK   75  A    between atoms: _178  and  _179
REMARK   76  A    between atoms: _178  and  _181
REMARK   77  A    between atoms: _181  and  _182
REMARK   78  A    between atoms: _187  and  _188
REMARK   79  A    between atoms: _190  and  _192
REMARK   80  A    between atoms: _192  and  _193
REMARK   81  A    between atoms: _195  and  _197
REMARK   82  A    between atoms: _197  and  _198
REMARK   83  A    between atoms: _197  and  _200
REMARK   84  A    between atoms: _200  and  _201
REMARK   85  A    between atoms: _204  and  _206
REMARK   86  A    between atoms: _206  and  _207
REMARK   87  A    between atoms: _209  and  _211
REMARK   88  A    between atoms: _211  and  _212
REMARK   89  A    between atoms: _211  and  _214
REMARK   90  A    between atoms: _214  and  _215
REMARK   91  A    between atoms: _217  and  _219
REMARK   92  A    between atoms: _219  and  _220
REMARK   93  A    between atoms: _219  and  _222
REMARK   94  A    between atoms: _222  and  _223
REMARK   95  A    between atoms: _225  and  _227
REMARK   96  A    between atoms: _227  and  _228
REMARK   97  A    between atoms: _227  and  _230
REMARK   98  A    between atoms: _230  and  _231
REMARK   99  A    between atoms: _233  and  _235
REMARK  100  A    between atoms: _235  and  _236
REMARK  101  A    between atoms: _235  and  _238
REMARK  102  A    between atoms: _238  and  _239
REMARK  103  A    between atoms: _245  and  _247
REMARK  104  A    between atoms: _247  and  _248
REMARK  105  A    between atoms: _247  and  _250
REMARK  106  A    between atoms: _250  and  _251
REMARK  107  A    between atoms: _254  and  _256
REMARK  108  A    between atoms: _256  and  _257
REMARK  109  A    between atoms: _256  and  _259
REMARK  110  A    between atoms: _259  and  _260
REMARK  111  A    between atoms: _263  and  _265
REMARK  112  A    between atoms: _265  and  _266
REMARK  113  A    between atoms: _265  and  _268
REMARK  114  A    between atoms: _268  and  _269
REMARK  115  A    between atoms: _272  and  _274
REMARK  116  A    between atoms: _274  and  _275
REMARK  117  A    between atoms: _277  and  _279
REMARK  118  A    between atoms: _279  and  _280
REMARK  119  A    between atoms: _279  and  _282
REMARK  120  A    between atoms: _282  and  _283
REMARK  121  A    between atoms: _286  and  _288
REMARK  122  A    between atoms: _288  and  _289
REMARK  123  A    between atoms: _288  and  _291
REMARK  124  A    between atoms: _291  and  _292
REMARK  125  A    between atoms: _295  and  _297
REMARK  126  A    between atoms: _297  and  _298
REMARK  127  A    between atoms: _300  and  _302
REMARK  128  A    between atoms: _302  and  _303
REMARK  129  A    between atoms: _302  and  _305
REMARK  130  A    between atoms: _305  and  _306
REMARK  131  A    between atoms: _309  and  _311
REMARK  132  A    between atoms: _311  and  _312
REMARK  133  A    between atoms: _315  and  _317
REMARK  134  A    between atoms: _317  and  _318
REMARK  135  A    between atoms: _317  and  _320
REMARK  136  A    between atoms: _320  and  _321
REMARK  137  A    between atoms: _327  and  _329
REMARK  138  A    between atoms: _329  and  _330
REMARK  139  A    between atoms: _329  and  _332
REMARK  140  A    between atoms: _332  and  _333
REMARK  141  A    between atoms: _336  and  _338
REMARK  142  A    between atoms: _338  and  _339
REMARK  143  A    between atoms: _338  and  _341
REMARK  144  A    between atoms: _341  and  _342
REMARK  145  A    between atoms: _345  and  _347
REMARK  146  A    between atoms: _347  and  _348
REMARK  147  A    between atoms: _347  and  _350
REMARK  148  A    between atoms: _350  and  _351
REMARK  149  A    between atoms: _356  and  _358
REMARK  150  A    between atoms: _358  and  _359
REMARK  151  A    between atoms: _358  and  _361
REMARK  152  A    between atoms: _361  and  _362
REMARK  153  A    between atoms: _365  and  _367
REMARK  154  A    between atoms: _367  and  _368
REMARK  155  A    between atoms: _367  and  _370
REMARK  156  A    between atoms: _370  and  _371
REMARK  157  A    between atoms: _371  and  _372
REMARK  158  A    between atoms: _377  and  _379
REMARK  159  A    between atoms: _379  and  _380
REMARK  160  A    between atoms: _382  and  _384
REMARK  161  A    between atoms: _384  and  _385
REMARK  162  A    between atoms: _384  and  _387
REMARK  163  A    between atoms: _387  and  _388
REMARK  164  A    between atoms: _394  and  _396
REMARK  165  A    between atoms: _396  and  _397
REMARK  166  A    between atoms: _396  and  _399
REMARK  167  A    between atoms: _399  and  _400
REMARK  168  A    between atoms: _403  and  _405
REMARK  169  A    between atoms: _405  and  _406
REMARK  170  A    between atoms: _409  and  _411
REMARK  171  A    between atoms: _411  and  _412
REMARK  172  A    between atoms: _411  and  _414
REMARK  173  A    between atoms: _414  and  _415
REMARK  174  A    between atoms: _418  and  _420
REMARK  175  A    between atoms: _420  and  _421
REMARK  176  A    between atoms: _420  and  _423
REMARK  177  A    between atoms: _423  and  _424
REMARK  178  A    between atoms: _427  and  _429
REMARK  179  A    between atoms: _429  and  _430
REMARK  180  A    between atoms: _432  and  _434
REMARK  181  A    between atoms: _434  and  _435
REMARK  182  A    between atoms: _434  and  _437
REMARK  183  A    between atoms: _437  and  _438
REMARK  184  A    between atoms: _441  and  _443
REMARK  185  A    between atoms: _443  and  _444
REMARK  186  A    between atoms: _443  and  _446
REMARK  187  A    between atoms: _446  and  _447
REMARK  188  A    between atoms: _450  and  _452
REMARK  189  A    between atoms: _452  and  _453
REMARK  190  A    between atoms: _452  and  _455
REMARK  191  A    between atoms: _455  and  _456
REMARK  192  A    between atoms: _459  and  _461
REMARK  193  A    between atoms: _461  and  _462
REMARK  194  A    between atoms: _461  and  _464
REMARK  195  A    between atoms: _464  and  _465
REMARK  196  A    between atoms: _470  and  _471
REMARK  197  A    between atoms: _473  and  _475
REMARK  198  A    between atoms: _475  and  _476
REMARK  199  A    between atoms: _478  and  _480
REMARK  200  A    between atoms: _480  and  _481
REMARK  201  A    between atoms: _480  and  _483
REMARK  202  A    between atoms: _483  and  _484
REMARK  203  A    between atoms: _490  and  _492
REMARK  204  A    between atoms: _492  and  _493
REMARK  205  A    between atoms: _492  and  _495
REMARK  206  A    between atoms: _495  and  _496
REMARK  207  A    between atoms: _502  and  _504
REMARK  208  A    between atoms: _504  and  _505
REMARK  209  A    between atoms: _507  and  _509
REMARK  210  A    between atoms: _509  and  _510
REMARK  211  A    between atoms: _512  and  _514
REMARK  212  A    between atoms: _514  and  _515
REMARK  213  A    between atoms: _514  and  _517
REMARK  214  A    between atoms: _517  and  _518
REMARK  215  A    between atoms: _518  and  _519
REMARK  216  A    between atoms: _524  and  _526
REMARK  217  A    between atoms: _526  and  _527
REMARK  218  A    between atoms: _529  and  _531
REMARK  219  A    between atoms: _531  and  _532
REMARK  220  A    between atoms: _531  and  _534
REMARK  221  A    between atoms: _534  and  _535
REMARK  222  A    between atoms: _538  and  _540
REMARK  223  A    between atoms: _540  and  _541
REMARK  224  A    between atoms: _543  and  _545
REMARK  225  A    between atoms: _545  and  _546
REMARK  226  A    between atoms: _545  and  _548
REMARK  227  A    between atoms: _548  and  _549
REMARK  228  A    between atoms: _552  and  _554
REMARK  229  A    between atoms: _554  and  _555
REMARK  230  A    between atoms: _554  and  _557
REMARK  231  A    between atoms: _557  and  _558
REMARK  232  A    between atoms: _563  and  _565
REMARK  233  A    between atoms: _565  and  _566
REMARK  234  A    between atoms: _565  and  _568
REMARK  235  A    between atoms: _568  and  _569
REMARK  236  A    between atoms: _572  and  _574
REMARK  237  A    between atoms: _574  and  _575
REMARK  238  A    between atoms: _577  and  _579
REMARK  239  A    between atoms: _579  and  _580
REMARK  240  A    between atoms: _579  and  _582
REMARK  241  A    between atoms: _582  and  _583
REMARK                            x       y       z     vdW  Elec       q    Type
REMARK                         _______ _______ _______ _____ _____    ______ ____
ROOT
ATOM      1  O   HOH     1      -7.860  28.722  14.772  0.00  0.00    +0.000 OA
ENDROOT
TORSDOF 0
REMARK  Name = ../refined-set-2016/1gvw/1gvw_pocket.pdb
REMARK  241 active torsions:
REMARK  status: ('A' for Active; 'I' for Inactive)
REMARK    1  A    between atoms: _1  and  _3
REMARK    2  A    between atoms: _3  and  _4
REMARK    3  A    between atoms: _3  and  _6
REMARK    4  A    between atoms: _6  and  _7
REMARK    5  A    between atoms: _10  and  _12
REMARK    6  A    between atoms: _12  and  _13
REMARK    7  A    between atoms: _12  and  _15
REMARK    8  A    between atoms: _15  and  _16
REMARK    9  A    between atoms: _19  and  _21
REMARK   10  A    between atoms: _21  and  _22
REMARK   11  A    between atoms: _21  and  _24
REMARK   12  A    between atoms: _24  and  _25
REMARK   13  A    between atoms: _28  and  _30
REMARK   14  A    between atoms: _30  and  _31
REMARK   15  A    between atoms: _30  and  _33
REMARK   16  A    between atoms: _33  and  _34
REMARK   17  A    between atoms: _37  and  _39
REMARK   18  A    between atoms: _39  and  _40
REMARK   19  A    between atoms: _39  and  _42
REMARK   20  A    between atoms: _42  and  _43
REMARK   21  A    between atoms: _46  and  _48
REMARK   22  A    between atoms: _48  and  _49
REMARK   23  A    between atoms: _52  and  _54
REMARK   24  A    between atoms: _54  and  _55
REMARK   25  A    between atoms: _54  and  _57
REMARK   26  A    between atoms: _57  and  _58
REMARK   27  A    between atoms: _63  and  _64
REMARK   28  A    between atoms: _66  and  _68
REMARK   29  A    between atoms: _68  and  _69
REMARK   30  A    between atoms: _68  and  _71
REMARK   31  A    between atoms: _71  and  _72
REMARK   32  A    between atoms: _75  and  _77
REMARK   33  A    between atoms: _77  and  _78
REMARK   34  A    between atoms: _77  and  _80
REMARK   35  A    between atoms: _80  and  _81
REMARK   36  A    between atoms: _87  and  _89
REMARK   37  A    between atoms: _89  and  _90
REMARK   38  A    between atoms: _89  and  _92
REMARK   39  A    between atoms: _92  and  _93
REMARK   40  A    between atoms: _96  and  _98
REMARK   41  A    between atoms: _98  and  _99
REMARK   42  A    between atoms: _98  and  _101
REMARK   43  A    between atoms: _101  and  _102
REMARK   44  A    between atoms: _105  and  _107
REMARK   45  A    between atoms: _107  and  _108
REMARK   46  A    between atoms: _110  and  _112
REMARK   47  A    between atoms: _112  and  _113
REMARK   48  A    between atoms: _112  and  _115
REMARK   49  A    between atoms: _115  and  _116
REMARK   50  A    between atoms: _118  and  _120
REMARK   51  A    between atoms: _120  and  _121
REMARK   52  A    between atoms: _120  and  _123
REMARK   53  A    between atoms: _123  and  _124
REMARK   54  A    between atoms: _126  and  _128
REMARK   55  A    between atoms: _128  and  _129
REMARK   56  A    between atoms: _128  and  _131
REMARK   57  A    between atoms: _131  and  _132
REMARK   58  A    between atoms: _135  and  _137
REMARK   59  A    between atoms: _137  and  _138
REMARK   60  A    between atoms: _137  and  _140
REMARK   61  A    between atoms: _140  and  _141
REMARK   62  A    between atoms: _151  and  _153
REMARK   63  A    between atoms: _153  and  _154
REMARK   64  A    between atoms: _153  and  _156
REMARK   65  A    between atoms: _156  and  _157
REMARK   66  A    between atoms: _159  and  _161
REMARK   67  A    between atoms: _161  and  _162
REMARK   68  A    between atoms: _161  and  _164
REMARK   69  A    between atoms: _164  and  _165
REMARK   70  A    between atoms: _168  and  _170
REMARK   71  A    between atoms: _170  and  _171
REMARK   72  A    between atoms: _170  and  _173
REMARK   73  A    between atoms: _173  and  _174
REMARK   74  A    between atoms: _176  and  _178
REMARK   75  A    between atoms: _178  and  _179
REMARK   76  A    between atoms: _178  and  _181
REMARK   77  A    between atoms: _181  and  _182
REMARK   78  A    between atoms: _187  and  _188
REMARK   79  A    between atoms: _190  and  _192
REMARK   80  A    between atoms: _192  and  _193
REMARK   81  A    between atoms: _195  and  _197
REMARK   82  A    between atoms: _197  and  _198
REMARK   83  A    between atoms: _197  and  _200
REMARK   84  A    between atoms: _200  and  _201
REMARK   85  A    between atoms: _204  and  _206
REMARK   86  A    between atoms: _206  and  _207
REMARK   87  A    between atoms: _209  and  _211
REMARK   88  A    between atoms: _211  and  _212
REMARK   89  A    between atoms: _211  and  _214
REMARK   90  A    between atoms: _214  and  _215
REMARK   91  A    between atoms: _217  and  _219
REMARK   92  A    between atoms: _219  and  _220
REMARK   93  A    between atoms: _219  and  _222
REMARK   94  A    between atoms: _222  and  _223
REMARK   95  A    between atoms: _225  and  _227
REMARK   96  A    between atoms: _227  and  _228
REMARK   97  A    between atoms: _227  and  _230
REMARK   98  A    between atoms: _230  and  _231
REMARK   99  A    between atoms: _233  and  _235
REMARK  100  A    between atoms: _235  and  _236
REMARK  101  A    between atoms: _235  and  _238
REMARK  102  A    between atoms: _238  and  _239
REMARK  103  A    between atoms: _245  and  _247
REMARK  104  A    between atoms: _247  and  _248
REMARK  105  A    between atoms: _247  and  _250
REMARK  106  A    between atoms: _250  and  _251
REMARK  107  A    between atoms: _254  and  _256
REMARK  108  A    between atoms: _256  and  _257
REMARK  109  A    between atoms: _256  and  _259
REMARK  110  A    between atoms: _259  and  _260
REMARK  111  A    between atoms: _263  and  _265
REMARK  112  A    between atoms: _265  and  _266
REMARK  113  A    between atoms: _265  and  _268
REMARK  114  A    between atoms: _268  and  _269
REMARK  115  A    between atoms: _272  and  _274
REMARK  116  A    between atoms: _274  and  _275
REMARK  117  A    between atoms: _277  and  _279
REMARK  118  A    between atoms: _279  and  _280
REMARK  119  A    between atoms: _279  and  _282
REMARK  120  A    between atoms: _282  and  _283
REMARK  121  A    between atoms: _286  and  _288
REMARK  122  A    between atoms: _288  and  _289
REMARK  123  A    between atoms: _288  and  _291
REMARK  124  A    between atoms: _291  and  _292
REMARK  125  A    between atoms: _295  and  _297
REMARK  126  A    between atoms: _297  and  _298
REMARK  127  A    between atoms: _300  and  _302
REMARK  128  A    between atoms: _302  and  _303
REMARK  129  A    between atoms: _302  and  _305
REMARK  130  A    between atoms: _305  and  _306
REMARK  131  A    between atoms: _309  and  _311
REMARK  132  A    between atoms: _311  and  _312
REMARK  133  A    between atoms: _315  and  _317
REMARK  134  A    between atoms: _317  and  _318
REMARK  135  A    between atoms: _317  and  _320
REMARK  136  A    between atoms: _320  and  _321
REMARK  137  A    between atoms: _327  and  _329
REMARK  138  A    between atoms: _329  and  _330
REMARK  139  A    between atoms: _329  and  _332
REMARK  140  A    between atoms: _332  and  _333
REMARK  141  A    between atoms: _336  and  _338
REMARK  142  A    between atoms: _338  and  _339
REMARK  143  A    between atoms: _338  and  _341
REMARK  144  A    between atoms: _341  and  _342
REMARK  145  A    between atoms: _345  and  _347
REMARK  146  A    between atoms: _347  and  _348
REMARK  147  A    between atoms: _347  and  _350
REMARK  148  A    between atoms: _350  and  _351
REMARK  149  A    between atoms: _356  and  _358
REMARK  150  A    between atoms: _358  and  _359
REMARK  151  A    between atoms: _358  and  _361
REMARK  152  A    between atoms: _361  and  _362
REMARK  153  A    between atoms: _365  and  _367
REMARK  154  A    between atoms: _367  and  _368
REMARK  155  A    between atoms: _367  and  _370
REMARK  156  A    between atoms: _370  and  _371
REMARK  157  A    between atoms: _371  and  _372
REMARK  158  A    between atoms: _377  and  _379
REMARK  159  A    between atoms: _379  and  _380
REMARK  160  A    between atoms: _382  and  _384
REMARK  161  A    between atoms: _384  and  _385
REMARK  162  A    between atoms: _384  and  _387
REMARK  163  A    between atoms: _387  and  _388
REMARK  164  A    between atoms: _394  and  _396
REMARK  165  A    between atoms: _396  and  _397
REMARK  166  A    between atoms: _396  and  _399
REMARK  167  A    between atoms: _399  and  _400
REMARK  168  A    between atoms: _403  and  _405
REMARK  169  A    between atoms: _405  and  _406
REMARK  170  A    between atoms: _409  and  _411
REMARK  171  A    between atoms: _411  and  _412
REMARK  172  A    between atoms: _411  and  _414
REMARK  173  A    between atoms: _414  and  _415
REMARK  174  A    between atoms: _418  and  _420
REMARK  175  A    between atoms: _420  and  _421
REMARK  176  A    between atoms: _420  and  _423
REMARK  177  A    between atoms: _423  and  _424
REMARK  178  A    between atoms: _427  and  _429
REMARK  179  A    between atoms: _429  and  _430
REMARK  180  A    between atoms: _432  and  _434
REMARK  181  A    between atoms: _434  and  _435
REMARK  182  A    between atoms: _434  and  _437
REMARK  183  A    between atoms: _437  and  _438
REMARK  184  A    between atoms: _441  and  _443
REMARK  185  A    between atoms: _443  and  _444
REMARK  186  A    between atoms: _443  and  _446
REMARK  187  A    between atoms: _446  and  _447
REMARK  188  A    between atoms: _450  and  _452
REMARK  189  A    between atoms: _452  and  _453
REMARK  190  A    between atoms: _452  and  _455
REMARK  191  A    between atoms: _455  and  _456
REMARK  192  A    between atoms: _459  and  _461
REMARK  193  A    between atoms: _461  and  _462
REMARK  194  A    between atoms: _461  and  _464
REMARK  195  A    between atoms: _464  and  _465
REMARK  196  A    between atoms: _470  and  _471
REMARK  197  A    between atoms: _473  and  _475
REMARK  198  A    between atoms: _475  and  _476
REMARK  199  A    between atoms: _478  and  _480
REMARK  200  A    between atoms: _480  and  _481
REMARK  201  A    between atoms: _480  and  _483
REMARK  202  A    between atoms: _483  and  _484
REMARK  203  A    between atoms: _490  and  _492
REMARK  204  A    between atoms: _492  and  _493
REMARK  205  A    between atoms: _492  and  _495
REMARK  206  A    between atoms: _495  and  _496
REMARK  207  A    between atoms: _502  and  _504
REMARK  208  A    between atoms: _504  and  _505
REMARK  209  A    between atoms: _507  and  _509
REMARK  210  A    between atoms: _509  and  _510
REMARK  211  A    between atoms: _512  and  _514
REMARK  212  A    between atoms: _514  and  _515
REMARK  213  A    between atoms: _514  and  _517
REMARK  214  A    between atoms: _517  and  _518
REMARK  215  A    between atoms: _518  and  _519
REMARK  216  A    between atoms: _524  and  _526
REMARK  217  A    between atoms: _526  and  _527
REMARK  218  A    between atoms: _529  and  _531
REMARK  219  A    between atoms: _531  and  _532
REMARK  220  A    between atoms: _531  and  _534
REMARK  221  A    between atoms: _534  and  _535
REMARK  222  A    between atoms: _538  and  _540
REMARK  223  A    between atoms: _540  and  _541
REMARK  224  A    between atoms: _543  and  _545
REMARK  225  A    between atoms: _545  and  _546
REMARK  226  A    between atoms: _545  and  _548
REMARK  227  A    between atoms: _548  and  _549
REMARK  228  A    between atoms: _552  and  _554
REMARK  229  A    between atoms: _554  and  _555
REMARK  230  A    between atoms: _554  and  _557
REMARK  231  A    between atoms: _557  and  _558
REMARK  232  A    between atoms: _563  and  _565
REMARK  233  A    between atoms: _565  and  _566
REMARK  234  A    between atoms: _565  and  _568
REMARK  235  A    between atoms: _568  and  _569
REMARK  236  A    between atoms: _572  and  _574
REMARK  237  A    between atoms: _574  and  _575
REMARK  238  A    between atoms: _577  and  _579
REMARK  239  A    between atoms: _579  and  _580
REMARK  240  A    between atoms: _579  and  _582
REMARK  241  A    between atoms: _582  and  _583
REMARK                            x       y       z     vdW  Elec       q    Type
REMARK                         _______ _______ _______ _____ _____    ______ ____
ROOT
ATOM      1  O   HOH     1      -8.372  36.022  14.721  0.00  0.00    +0.000 OA
ENDROOT
TORSDOF 0
REMARK  Name = ../refined-set-2016/1gvw/1gvw_pocket.pdb
REMARK  241 active torsions:
REMARK  status: ('A' for Active; 'I' for Inactive)
REMARK    1  A    between atoms: _1  and  _3
REMARK    2  A    between atoms: _3  and  _4
REMARK    3  A    between atoms: _3  and  _6
REMARK    4  A    between atoms: _6  and  _7
REMARK    5  A    between atoms: _10  and  _12
REMARK    6  A    between atoms: _12  and  _13
REMARK    7  A    between atoms: _12  and  _15
REMARK    8  A    between atoms: _15  and  _16
REMARK    9  A    between atoms: _19  and  _21
REMARK   10  A    between atoms: _21  and  _22
REMARK   11  A    between atoms: _21  and  _24
REMARK   12  A    between atoms: _24  and  _25
REMARK   13  A    between atoms: _28  and  _30
REMARK   14  A    between atoms: _30  and  _31
REMARK   15  A    between atoms: _30  and  _33
REMARK   16  A    between atoms: _33  and  _34
REMARK   17  A    between atoms: _37  and  _39
REMARK   18  A    between atoms: _39  and  _40
REMARK   19  A    between atoms: _39  and  _42
REMARK   20  A    between atoms: _42  and  _43
REMARK   21  A    between atoms: _46  and  _48
REMARK   22  A    between atoms: _48  and  _49
REMARK   23  A    between atoms: _52  and  _54
REMARK   24  A    between atoms: _54  and  _55
REMARK   25  A    between atoms: _54  and  _57
REMARK   26  A    between atoms: _57  and  _58
REMARK   27  A    between atoms: _63  and  _64
REMARK   28  A    between atoms: _66  and  _68
REMARK   29  A    between atoms: _68  and  _69
REMARK   30  A    between atoms: _68  and  _71
REMARK   31  A    between atoms: _71  and  _72
REMARK   32  A    between atoms: _75  and  _77
REMARK   33  A    between atoms: _77  and  _78
REMARK   34  A    between atoms: _77  and  _80
REMARK   35  A    between atoms: _80  and  _81
REMARK   36  A    between atoms: _87  and  _89
REMARK   37  A    between atoms: _89  and  _90
REMARK   38  A    between atoms: _89  and  _92
REMARK   39  A    between atoms: _92  and  _93
REMARK   40  A    between atoms: _96  and  _98
REMARK   41  A    between atoms: _98  and  _99
REMARK   42  A    between atoms: _98  and  _101
REMARK   43  A    between atoms: _101  and  _102
REMARK   44  A    between atoms: _105  and  _107
REMARK   45  A    between atoms: _107  and  _108
REMARK   46  A    between atoms: _110  and  _112
REMARK   47  A    between atoms: _112  and  _113
REMARK   48  A    between atoms: _112  and  _115
REMARK   49  A    between atoms: _115  and  _116
REMARK   50  A    between atoms: _118  and  _120
REMARK   51  A    between atoms: _120  and  _121
REMARK   52  A    between atoms: _120  and  _123
REMARK   53  A    between atoms: _123  and  _124
REMARK   54  A    between atoms: _126  and  _128
REMARK   55  A    between atoms: _128  and  _129
REMARK   56  A    between atoms: _128  and  _131
REMARK   57  A    between atoms: _131  and  _132
REMARK   58  A    between atoms: _135  and  _137
REMARK   59  A    between atoms: _137  and  _138
REMARK   60  A    between atoms: _137  and  _140
REMARK   61  A    between atoms: _140  and  _141
REMARK   62  A    between atoms: _151  and  _153
REMARK   63  A    between atoms: _153  and  _154
REMARK   64  A    between atoms: _153  and  _156
REMARK   65  A    between atoms: _156  and  _157
REMARK   66  A    between atoms: _159  and  _161
REMARK   67  A    between atoms: _161  and  _162
REMARK   68  A    between atoms: _161  and  _164
REMARK   69  A    between atoms: _164  and  _165
REMARK   70  A    between atoms: _168  and  _170
REMARK   71  A    between atoms: _170  and  _171
REMARK   72  A    between atoms: _170  and  _173
REMARK   73  A    between atoms: _173  and  _174
REMARK   74  A    between atoms: _176  and  _178
REMARK   75  A    between atoms: _178  and  _179
REMARK   76  A    between atoms: _178  and  _181
REMARK   77  A    between atoms: _181  and  _182
REMARK   78  A    between atoms: _187  and  _188
REMARK   79  A    between atoms: _190  and  _192
REMARK   80  A    between atoms: _192  and  _193
REMARK   81  A    between atoms: _195  and  _197
REMARK   82  A    between atoms: _197  and  _198
REMARK   83  A    between atoms: _197  and  _200
REMARK   84  A    between atoms: _200  and  _201
REMARK   85  A    between atoms: _204  and  _206
REMARK   86  A    between atoms: _206  and  _207
REMARK   87  A    between atoms: _209  and  _211
REMARK   88  A    between atoms: _211  and  _212
REMARK   89  A    between atoms: _211  and  _214
REMARK   90  A    between atoms: _214  and  _215
REMARK   91  A    between atoms: _217  and  _219
REMARK   92  A    between atoms: _219  and  _220
REMARK   93  A    between atoms: _219  and  _222
REMARK   94  A    between atoms: _222  and  _223
REMARK   95  A    between atoms: _225  and  _227
REMARK   96  A    between atoms: _227  and  _228
REMARK   97  A    between atoms: _227  and  _230
REMARK   98  A    between atoms: _230  and  _231
REMARK   99  A    between atoms: _233  and  _235
REMARK  100  A    between atoms: _235  and  _236
REMARK  101  A    between atoms: _235  and  _238
REMARK  102  A    between atoms: _238  and  _239
REMARK  103  A    between atoms: _245  and  _247
REMARK  104  A    between atoms: _247  and  _248
REMARK  105  A    between atoms: _247  and  _250
REMARK  106  A    between atoms: _250  and  _251
REMARK  107  A    between atoms: _254  and  _256
REMARK  108  A    between atoms: _256  and  _257
REMARK  109  A    between atoms: _256  and  _259
REMARK  110  A    between atoms: _259  and  _260
REMARK  111  A    between atoms: _263  and  _265
REMARK  112  A    between atoms: _265  and  _266
REMARK  113  A    between atoms: _265  and  _268
REMARK  114  A    between atoms: _268  and  _269
REMARK  115  A    between atoms: _272  and  _274
REMARK  116  A    between atoms: _274  and  _275
REMARK  117  A    between atoms: _277  and  _279
REMARK  118  A    between atoms: _279  and  _280
REMARK  119  A    between atoms: _279  and  _282
REMARK  120  A    between atoms: _282  and  _283
REMARK  121  A    between atoms: _286  and  _288
REMARK  122  A    between atoms: _288  and  _289
REMARK  123  A    between atoms: _288  and  _291
REMARK  124  A    between atoms: _291  and  _292
REMARK  125  A    between atoms: _295  and  _297
REMARK  126  A    between atoms: _297  and  _298
REMARK  127  A    between atoms: _300  and  _302
REMARK  128  A    between atoms: _302  and  _303
REMARK  129  A    between atoms: _302  and  _305
REMARK  130  A    between atoms: _305  and  _306
REMARK  131  A    between atoms: _309  and  _311
REMARK  132  A    between atoms: _311  and  _312
REMARK  133  A    between atoms: _315  and  _317
REMARK  134  A    between atoms: _317  and  _318
REMARK  135  A    between atoms: _317  and  _320
REMARK  136  A    between atoms: _320  and  _321
REMARK  137  A    between atoms: _327  and  _329
REMARK  138  A    between atoms: _329  and  _330
REMARK  139  A    between atoms: _329  and  _332
REMARK  140  A    between atoms: _332  and  _333
REMARK  141  A    between atoms: _336  and  _338
REMARK  142  A    between atoms: _338  and  _339
REMARK  143  A    between atoms: _338  and  _341
REMARK  144  A    between atoms: _341  and  _342
REMARK  145  A    between atoms: _345  and  _347
REMARK  146  A    between atoms: _347  and  _348
REMARK  147  A    between atoms: _347  and  _350
REMARK  148  A    between atoms: _350  and  _351
REMARK  149  A    between atoms: _356  and  _358
REMARK  150  A    between atoms: _358  and  _359
REMARK  151  A    between atoms: _358  and  _361
REMARK  152  A    between atoms: _361  and  _362
REMARK  153  A    between atoms: _365  and  _367
REMARK  154  A    between atoms: _367  and  _368
REMARK  155  A    between atoms: _367  and  _370
REMARK  156  A    between atoms: _370  and  _371
REMARK  157  A    between atoms: _371  and  _372
REMARK  158  A    between atoms: _377  and  _379
REMARK  159  A    between atoms: _379  and  _380
REMARK  160  A    between atoms: _382  and  _384
REMARK  161  A    between atoms: _384  and  _385
REMARK  162  A    between atoms: _384  and  _387
REMARK  163  A    between atoms: _387  and  _388
REMARK  164  A    between atoms: _394  and  _396
REMARK  165  A    between atoms: _396  and  _397
REMARK  166  A    between atoms: _396  and  _399
REMARK  167  A    between atoms: _399  and  _400
REMARK  168  A    between atoms: _403  and  _405
REMARK  169  A    between atoms: _405  and  _406
REMARK  170  A    between atoms: _409  and  _411
REMARK  171  A    between atoms: _411  and  _412
REMARK  172  A    between atoms: _411  and  _414
REMARK  173  A    between atoms: _414  and  _415
REMARK  174  A    between atoms: _418  and  _420
REMARK  175  A    between atoms: _420  and  _421
REMARK  176  A    between atoms: _420  and  _423
REMARK  177  A    between atoms: _423  and  _424
REMARK  178  A    between atoms: _427  and  _429
REMARK  179  A    between atoms: _429  and  _430
REMARK  180  A    between atoms: _432  and  _434
REMARK  181  A    between atoms: _434  and  _435
REMARK  182  A    between atoms: _434  and  _437
REMARK  183  A    between atoms: _437  and  _438
REMARK  184  A    between atoms: _441  and  _443
REMARK  185  A    between atoms: _443  and  _444
REMARK  186  A    between atoms: _443  and  _446
REMARK  187  A    between atoms: _446  and  _447
REMARK  188  A    between atoms: _450  and  _452
REMARK  189  A    between atoms: _452  and  _453
REMARK  190  A    between atoms: _452  and  _455
REMARK  191  A    between atoms: _455  and  _456
REMARK  192  A    between atoms: _459  and  _461
REMARK  193  A    between atoms: _461  and  _462
REMARK  194  A    between atoms: _461  and  _464
REMARK  195  A    between atoms: _464  and  _465
REMARK  196  A    between atoms: _470  and  _471
REMARK  197  A    between atoms: _473  and  _475
REMARK  198  A    between atoms: _475  and  _476
REMARK  199  A    between atoms: _478  and  _480
REMARK  200  A    between atoms: _480  and  _481
REMARK  201  A    between atoms: _480  and  _483
REMARK  202  A    between atoms: _483  and  _484
REMARK  203  A    between atoms: _490  and  _492
REMARK  204  A    between atoms: _492  and  _493
REMARK  205  A    between atoms: _492  and  _495
REMARK  206  A    between atoms: _495  and  _496
REMARK  207  A    between atoms: _502  and  _504
REMARK  208  A    between atoms: _504  and  _505
REMARK  209  A    between atoms: _507  and  _509
REMARK  210  A    between atoms: _509  and  _510
REMARK  211  A    between atoms: _512  and  _514
REMARK  212  A    between atoms: _514  and  _515
REMARK  213  A    between atoms: _514  and  _517
REMARK  214  A    between atoms: _517  and  _518
REMARK  215  A    between atoms: _518  and  _519
REMARK  216  A    between atoms: _524  and  _526
REMARK  217  A    between atoms: _526  and  _527
REMARK  218  A    between atoms: _529  and  _531
REMARK  219  A    between atoms: _531  and  _532
REMARK  220  A    between atoms: _531  and  _534
REMARK  221  A    between atoms: _534  and  _535
REMARK  222  A    between atoms: _538  and  _540
REMARK  223  A    between atoms: _540  and  _541
REMARK  224  A    between atoms: _543  and  _545
REMARK  225  A    between atoms: _545  and  _546
REMARK  226  A    between atoms: _545  and  _548
REMARK  227  A    between atoms: _548  and  _549
REMARK  228  A    between atoms: _552  and  _554
REMARK  229  A    between atoms: _554  and  _555
REMARK  230  A    between atoms: _554  and  _557
REMARK  231  A    between atoms: _557  and  _558
REMARK  232  A    between atoms: _563  and  _565
REMARK  233  A    between atoms: _565  and  _566
REMARK  234  A    between atoms: _565  and  _568
REMARK  235  A    between atoms: _568  and  _569
REMARK  236  A    between atoms: _572  and  _574
REMARK  237  A    between atoms: _574  and  _575
REMARK  238  A    between atoms: _577  and  _579
REMARK  239  A    between atoms: _579  and  _580
REMARK  240  A    between atoms: _579  and  _582
REMARK  241  A    between atoms: _582  and  _583
REMARK                            x       y       z     vdW  Elec       q    Type
REMARK                         _______ _______ _______ _____ _____    ______ ____
ROOT
ATOM      1  O   HOH     1       7.521  26.423  15.414  0.00  0.00    +0.000 OA
ENDROOT
TORSDOF 0
REMARK  Name = ../refined-set-2016/1gvw/1gvw_pocket.pdb
REMARK  241 active torsions:
REMARK  status: ('A' for Active; 'I' for Inactive)
REMARK    1  A    between atoms: _1  and  _3
REMARK    2  A    between atoms: _3  and  _4
REMARK    3  A    between atoms: _3  and  _6
REMARK    4  A    between atoms: _6  and  _7
REMARK    5  A    between atoms: _10  and  _12
REMARK    6  A    between atoms: _12  and  _13
REMARK    7  A    between atoms: _12  and  _15
REMARK    8  A    between atoms: _15  and  _16
REMARK    9  A    between atoms: _19  and  _21
REMARK   10  A    between atoms: _21  and  _22
REMARK   11  A    between atoms: _21  and  _24
REMARK   12  A    between atoms: _24  and  _25
REMARK   13  A    between atoms: _28  and  _30
REMARK   14  A    between atoms: _30  and  _31
REMARK   15  A    between atoms: _30  and  _33
REMARK   16  A    between atoms: _33  and  _34
REMARK   17  A    between atoms: _37  and  _39
REMARK   18  A    between atoms: _39  and  _40
REMARK   19  A    between atoms: _39  and  _42
REMARK   20  A    between atoms: _42  and  _43
REMARK   21  A    between atoms: _46  and  _48
REMARK   22  A    between atoms: _48  and  _49
REMARK   23  A    between atoms: _52  and  _54
REMARK   24  A    between atoms: _54  and  _55
REMARK   25  A    between atoms: _54  and  _57
REMARK   26  A    between atoms: _57  and  _58
REMARK   27  A    between atoms: _63  and  _64
REMARK   28  A    between atoms: _66  and  _68
REMARK   29  A    between atoms: _68  and  _69
REMARK   30  A    between atoms: _68  and  _71
REMARK   31  A    between atoms: _71  and  _72
REMARK   32  A    between atoms: _75  and  _77
REMARK   33  A    between atoms: _77  and  _78
REMARK   34  A    between atoms: _77  and  _80
REMARK   35  A    between atoms: _80  and  _81
REMARK   36  A    between atoms: _87  and  _89
REMARK   37  A    between atoms: _89  and  _90
REMARK   38  A    between atoms: _89  and  _92
REMARK   39  A    between atoms: _92  and  _93
REMARK   40  A    between atoms: _96  and  _98
REMARK   41  A    between atoms: _98  and  _99
REMARK   42  A    between atoms: _98  and  _101
REMARK   43  A    between atoms: _101  and  _102
REMARK   44  A    between atoms: _105  and  _107
REMARK   45  A    between atoms: _107  and  _108
REMARK   46  A    between atoms: _110  and  _112
REMARK   47  A    between atoms: _112  and  _113
REMARK   48  A    between atoms: _112  and  _115
REMARK   49  A    between atoms: _115  and  _116
REMARK   50  A    between atoms: _118  and  _120
REMARK   51  A    between atoms: _120  and  _121
REMARK   52  A    between atoms: _120  and  _123
REMARK   53  A    between atoms: _123  and  _124
REMARK   54  A    between atoms: _126  and  _128
REMARK   55  A    between atoms: _128  and  _129
REMARK   56  A    between atoms: _128  and  _131
REMARK   57  A    between atoms: _131  and  _132
REMARK   58  A    between atoms: _135  and  _137
REMARK   59  A    between atoms: _137  and  _138
REMARK   60  A    between atoms: _137  and  _140
REMARK   61  A    between atoms: _140  and  _141
REMARK   62  A    between atoms: _151  and  _153
REMARK   63  A    between atoms: _153  and  _154
REMARK   64  A    between atoms: _153  and  _156
REMARK   65  A    between atoms: _156  and  _157
REMARK   66  A    between atoms: _159  and  _161
REMARK   67  A    between atoms: _161  and  _162
REMARK   68  A    between atoms: _161  and  _164
REMARK   69  A    between atoms: _164  and  _165
REMARK   70  A    between atoms: _168  and  _170
REMARK   71  A    between atoms: _170  and  _171
REMARK   72  A    between atoms: _170  and  _173
REMARK   73  A    between atoms: _173  and  _174
REMARK   74  A    between atoms: _176  and  _178
REMARK   75  A    between atoms: _178  and  _179
REMARK   76  A    between atoms: _178  and  _181
REMARK   77  A    between atoms: _181  and  _182
REMARK   78  A    between atoms: _187  and  _188
REMARK   79  A    between atoms: _190  and  _192
REMARK   80  A    between atoms: _192  and  _193
REMARK   81  A    between atoms: _195  and  _197
REMARK   82  A    between atoms: _197  and  _198
REMARK   83  A    between atoms: _197  and  _200
REMARK   84  A    between atoms: _200  and  _201
REMARK   85  A    between atoms: _204  and  _206
REMARK   86  A    between atoms: _206  and  _207
REMARK   87  A    between atoms: _209  and  _211
REMARK   88  A    between atoms: _211  and  _212
REMARK   89  A    between atoms: _211  and  _214
REMARK   90  A    between atoms: _214  and  _215
REMARK   91  A    between atoms: _217  and  _219
REMARK   92  A    between atoms: _219  and  _220
REMARK   93  A    between atoms: _219  and  _222
REMARK   94  A    between atoms: _222  and  _223
REMARK   95  A    between atoms: _225  and  _227
REMARK   96  A    between atoms: _227  and  _228
REMARK   97  A    between atoms: _227  and  _230
REMARK   98  A    between atoms: _230  and  _231
REMARK   99  A    between atoms: _233  and  _235
REMARK  100  A    between atoms: _235  and  _236
REMARK  101  A    between atoms: _235  and  _238
REMARK  102  A    between atoms: _238  and  _239
REMARK  103  A    between atoms: _245  and  _247
REMARK  104  A    between atoms: _247  and  _248
REMARK  105  A    between atoms: _247  and  _250
REMARK  106  A    between atoms: _250  and  _251
REMARK  107  A    between atoms: _254  and  _256
REMARK  108  A    between atoms: _256  and  _257
REMARK  109  A    between atoms: _256  and  _259
REMARK  110  A    between atoms: _259  and  _260
REMARK  111  A    between atoms: _263  and  _265
REMARK  112  A    between atoms: _265  and  _266
REMARK  113  A    between atoms: _265  and  _268
REMARK  114  A    between atoms: _268  and  _269
REMARK  115  A    between atoms: _272  and  _274
REMARK  116  A    between atoms: _274  and  _275
REMARK  117  A    between atoms: _277  and  _279
REMARK  118  A    between atoms: _279  and  _280
REMARK  119  A    between atoms: _279  and  _282
REMARK  120  A    between atoms: _282  and  _283
REMARK  121  A    between atoms: _286  and  _288
REMARK  122  A    between atoms: _288  and  _289
REMARK  123  A    between atoms: _288  and  _291
REMARK  124  A    between atoms: _291  and  _292
REMARK  125  A    between atoms: _295  and  _297
REMARK  126  A    between atoms: _297  and  _298
REMARK  127  A    between atoms: _300  and  _302
REMARK  128  A    between atoms: _302  and  _303
REMARK  129  A    between atoms: _302  and  _305
REMARK  130  A    between atoms: _305  and  _306
REMARK  131  A    between atoms: _309  and  _311
REMARK  132  A    between atoms: _311  and  _312
REMARK  133  A    between atoms: _315  and  _317
REMARK  134  A    between atoms: _317  and  _318
REMARK  135  A    between atoms: _317  and  _320
REMARK  136  A    between atoms: _320  and  _321
REMARK  137  A    between atoms: _327  and  _329
REMARK  138  A    between atoms: _329  and  _330
REMARK  139  A    between atoms: _329  and  _332
REMARK  140  A    between atoms: _332  and  _333
REMARK  141  A    between atoms: _336  and  _338
REMARK  142  A    between atoms: _338  and  _339
REMARK  143  A    between atoms: _338  and  _341
REMARK  144  A    between atoms: _341  and  _342
REMARK  145  A    between atoms: _345  and  _347
REMARK  146  A    between atoms: _347  and  _348
REMARK  147  A    between atoms: _347  and  _350
REMARK  148  A    between atoms: _350  and  _351
REMARK  149  A    between atoms: _356  and  _358
REMARK  150  A    between atoms: _358  and  _359
REMARK  151  A    between atoms: _358  and  _361
REMARK  152  A    between atoms: _361  and  _362
REMARK  153  A    between atoms: _365  and  _367
REMARK  154  A    between atoms: _367  and  _368
REMARK  155  A    between atoms: _367  and  _370
REMARK  156  A    between atoms: _370  and  _371
REMARK  157  A    between atoms: _371  and  _372
REMARK  158  A    between atoms: _377  and  _379
REMARK  159  A    between atoms: _379  and  _380
REMARK  160  A    between atoms: _382  and  _384
REMARK  161  A    between atoms: _384  and  _385
REMARK  162  A    between atoms: _384  and  _387
REMARK  163  A    between atoms: _387  and  _388
REMARK  164  A    between atoms: _394  and  _396
REMARK  165  A    between atoms: _396  and  _397
REMARK  166  A    between atoms: _396  and  _399
REMARK  167  A    between atoms: _399  and  _400
REMARK  168  A    between atoms: _403  and  _405
REMARK  169  A    between atoms: _405  and  _406
REMARK  170  A    between atoms: _409  and  _411
REMARK  171  A    between atoms: _411  and  _412
REMARK  172  A    between atoms: _411  and  _414
REMARK  173  A    between atoms: _414  and  _415
REMARK  174  A    between atoms: _418  and  _420
REMARK  175  A    between atoms: _420  and  _421
REMARK  176  A    between atoms: _420  and  _423
REMARK  177  A    between atoms: _423  and  _424
REMARK  178  A    between atoms: _427  and  _429
REMARK  179  A    between atoms: _429  and  _430
REMARK  180  A    between atoms: _432  and  _434
REMARK  181  A    between atoms: _434  and  _435
REMARK  182  A    between atoms: _434  and  _437
REMARK  183  A    between atoms: _437  and  _438
REMARK  184  A    between atoms: _441  and  _443
REMARK  185  A    between atoms: _443  and  _444
REMARK  186  A    between atoms: _443  and  _446
REMARK  187  A    between atoms: _446  and  _447
REMARK  188  A    between atoms: _450  and  _452
REMARK  189  A    between atoms: _452  and  _453
REMARK  190  A    between atoms: _452  and  _455
REMARK  191  A    between atoms: _455  and  _456
REMARK  192  A    between atoms: _459  and  _461
REMARK  193  A    between atoms: _461  and  _462
REMARK  194  A    between atoms: _461  and  _464
REMARK  195  A    between atoms: _464  and  _465
REMARK  196  A    between atoms: _470  and  _471
REMARK  197  A    between atoms: _473  and  _475
REMARK  198  A    between atoms: _475  and  _476
REMARK  199  A    between atoms: _478  and  _480
REMARK  200  A    between atoms: _480  and  _481
REMARK  201  A    between atoms: _480  and  _483
REMARK  202  A    between atoms: _483  and  _484
REMARK  203  A    between atoms: _490  and  _492
REMARK  204  A    between atoms: _492  and  _493
REMARK  205  A    between atoms: _492  and  _495
REMARK  206  A    between atoms: _495  and  _496
REMARK  207  A    between atoms: _502  and  _504
REMARK  208  A    between atoms: _504  and  _505
REMARK  209  A    between atoms: _507  and  _509
REMARK  210  A    between atoms: _509  and  _510
REMARK  211  A    between atoms: _512  and  _514
REMARK  212  A    between atoms: _514  and  _515
REMARK  213  A    between atoms: _514  and  _517
REMARK  214  A    between atoms: _517  and  _518
REMARK  215  A    between atoms: _518  and  _519
REMARK  216  A    between atoms: _524  and  _526
REMARK  217  A    between atoms: _526  and  _527
REMARK  218  A    between atoms: _529  and  _531
REMARK  219  A    between atoms: _531  and  _532
REMARK  220  A    between atoms: _531  and  _534
REMARK  221  A    between atoms: _534  and  _535
REMARK  222  A    between atoms: _538  and  _540
REMARK  223  A    between atoms: _540  and  _541
REMARK  224  A    between atoms: _543  and  _545
REMARK  225  A    between atoms: _545  and  _546
REMARK  226  A    between atoms: _545  and  _548
REMARK  227  A    between atoms: _548  and  _549
REMARK  228  A    between atoms: _552  and  _554
REMARK  229  A    between atoms: _554  and  _555
REMARK  230  A    between atoms: _554  and  _557
REMARK  231  A    between atoms: _557  and  _558
REMARK  232  A    between atoms: _563  and  _565
REMARK  233  A    between atoms: _565  and  _566
REMARK  234  A    between atoms: _565  and  _568
REMARK  235  A    between atoms: _568  and  _569
REMARK  236  A    between atoms: _572  and  _574
REMARK  237  A    between atoms: _574  and  _575
REMARK  238  A    between atoms: _577  and  _579
REMARK  239  A    between atoms: _579  and  _580
REMARK  240  A    between atoms: _579  and  _582
REMARK  241  A    between atoms: _582  and  _583
REMARK                            x       y       z     vdW  Elec       q    Type
REMARK                         _______ _______ _______ _____ _____    ______ ____
ROOT
ATOM      1  O   HOH     1       6.194  20.344  14.575  0.00  0.00    +0.000 OA
ENDROOT
TORSDOF 0
REMARK  Name = ../refined-set-2016/1gvw/1gvw_pocket.pdb
REMARK  241 active torsions:
REMARK  status: ('A' for Active; 'I' for Inactive)
REMARK    1  A    between atoms: _1  and  _3
REMARK    2  A    between atoms: _3  and  _4
REMARK    3  A    between atoms: _3  and  _6
REMARK    4  A    between atoms: _6  and  _7
REMARK    5  A    between atoms: _10  and  _12
REMARK    6  A    between atoms: _12  and  _13
REMARK    7  A    between atoms: _12  and  _15
REMARK    8  A    between atoms: _15  and  _16
REMARK    9  A    between atoms: _19  and  _21
REMARK   10  A    between atoms: _21  and  _22
REMARK   11  A    between atoms: _21  and  _24
REMARK   12  A    between atoms: _24  and  _25
REMARK   13  A    between atoms: _28  and  _30
REMARK   14  A    between atoms: _30  and  _31
REMARK   15  A    between atoms: _30  and  _33
REMARK   16  A    between atoms: _33  and  _34
REMARK   17  A    between atoms: _37  and  _39
REMARK   18  A    between atoms: _39  and  _40
REMARK   19  A    between atoms: _39  and  _42
REMARK   20  A    between atoms: _42  and  _43
REMARK   21  A    between atoms: _46  and  _48
REMARK   22  A    between atoms: _48  and  _49
REMARK   23  A    between atoms: _52  and  _54
REMARK   24  A    between atoms: _54  and  _55
REMARK   25  A    between atoms: _54  and  _57
REMARK   26  A    between atoms: _57  and  _58
REMARK   27  A    between atoms: _63  and  _64
REMARK   28  A    between atoms: _66  and  _68
REMARK   29  A    between atoms: _68  and  _69
REMARK   30  A    between atoms: _68  and  _71
REMARK   31  A    between atoms: _71  and  _72
REMARK   32  A    between atoms: _75  and  _77
REMARK   33  A    between atoms: _77  and  _78
REMARK   34  A    between atoms: _77  and  _80
REMARK   35  A    between atoms: _80  and  _81
REMARK   36  A    between atoms: _87  and  _89
REMARK   37  A    between atoms: _89  and  _90
REMARK   38  A    between atoms: _89  and  _92
REMARK   39  A    between atoms: _92  and  _93
REMARK   40  A    between atoms: _96  and  _98
REMARK   41  A    between atoms: _98  and  _99
REMARK   42  A    between atoms: _98  and  _101
REMARK   43  A    between atoms: _101  and  _102
REMARK   44  A    between atoms: _105  and  _107
REMARK   45  A    between atoms: _107  and  _108
REMARK   46  A    between atoms: _110  and  _112
REMARK   47  A    between atoms: _112  and  _113
REMARK   48  A    between atoms: _112  and  _115
REMARK   49  A    between atoms: _115  and  _116
REMARK   50  A    between atoms: _118  and  _120
REMARK   51  A    between atoms: _120  and  _121
REMARK   52  A    between atoms: _120  and  _123
REMARK   53  A    between atoms: _123  and  _124
REMARK   54  A    between atoms: _126  and  _128
REMARK   55  A    between atoms: _128  and  _129
REMARK   56  A    between atoms: _128  and  _131
REMARK   57  A    between atoms: _131  and  _132
REMARK   58  A    between atoms: _135  and  _137
REMARK   59  A    between atoms: _137  and  _138
REMARK   60  A    between atoms: _137  and  _140
REMARK   61  A    between atoms: _140  and  _141
REMARK   62  A    between atoms: _151  and  _153
REMARK   63  A    between atoms: _153  and  _154
REMARK   64  A    between atoms: _153  and  _156
REMARK   65  A    between atoms: _156  and  _157
REMARK   66  A    between atoms: _159  and  _161
REMARK   67  A    between atoms: _161  and  _162
REMARK   68  A    between atoms: _161  and  _164
REMARK   69  A    between atoms: _164  and  _165
REMARK   70  A    between atoms: _168  and  _170
REMARK   71  A    between atoms: _170  and  _171
REMARK   72  A    between atoms: _170  and  _173
REMARK   73  A    between atoms: _173  and  _174
REMARK   74  A    between atoms: _176  and  _178
REMARK   75  A    between atoms: _178  and  _179
REMARK   76  A    between atoms: _178  and  _181
REMARK   77  A    between atoms: _181  and  _182
REMARK   78  A    between atoms: _187  and  _188
REMARK   79  A    between atoms: _190  and  _192
REMARK   80  A    between atoms: _192  and  _193
REMARK   81  A    between atoms: _195  and  _197
REMARK   82  A    between atoms: _197  and  _198
REMARK   83  A    between atoms: _197  and  _200
REMARK   84  A    between atoms: _200  and  _201
REMARK   85  A    between atoms: _204  and  _206
REMARK   86  A    between atoms: _206  and  _207
REMARK   87  A    between atoms: _209  and  _211
REMARK   88  A    between atoms: _211  and  _212
REMARK   89  A    between atoms: _211  and  _214
REMARK   90  A    between atoms: _214  and  _215
REMARK   91  A    between atoms: _217  and  _219
REMARK   92  A    between atoms: _219  and  _220
REMARK   93  A    between atoms: _219  and  _222
REMARK   94  A    between atoms: _222  and  _223
REMARK   95  A    between atoms: _225  and  _227
REMARK   96  A    between atoms: _227  and  _228
REMARK   97  A    between atoms: _227  and  _230
REMARK   98  A    between atoms: _230  and  _231
REMARK   99  A    between atoms: _233  and  _235
REMARK  100  A    between atoms: _235  and  _236
REMARK  101  A    between atoms: _235  and  _238
REMARK  102  A    between atoms: _238  and  _239
REMARK  103  A    between atoms: _245  and  _247
REMARK  104  A    between atoms: _247  and  _248
REMARK  105  A    between atoms: _247  and  _250
REMARK  106  A    between atoms: _250  and  _251
REMARK  107  A    between atoms: _254  and  _256
REMARK  108  A    between atoms: _256  and  _257
REMARK  109  A    between atoms: _256  and  _259
REMARK  110  A    between atoms: _259  and  _260
REMARK  111  A    between atoms: _263  and  _265
REMARK  112  A    between atoms: _265  and  _266
REMARK  113  A    between atoms: _265  and  _268
REMARK  114  A    between atoms: _268  and  _269
REMARK  115  A    between atoms: _272  and  _274
REMARK  116  A    between atoms: _274  and  _275
REMARK  117  A    between atoms: _277  and  _279
REMARK  118  A    between atoms: _279  and  _280
REMARK  119  A    between atoms: _279  and  _282
REMARK  120  A    between atoms: _282  and  _283
REMARK  121  A    between atoms: _286  and  _288
REMARK  122  A    between atoms: _288  and  _289
REMARK  123  A    between atoms: _288  and  _291
REMARK  124  A    between atoms: _291  and  _292
REMARK  125  A    between atoms: _295  and  _297
REMARK  126  A    between atoms: _297  and  _298
REMARK  127  A    between atoms: _300  and  _302
REMARK  128  A    between atoms: _302  and  _303
REMARK  129  A    between atoms: _302  and  _305
REMARK  130  A    between atoms: _305  and  _306
REMARK  131  A    between atoms: _309  and  _311
REMARK  132  A    between atoms: _311  and  _312
REMARK  133  A    between atoms: _315  and  _317
REMARK  134  A    between atoms: _317  and  _318
REMARK  135  A    between atoms: _317  and  _320
REMARK  136  A    between atoms: _320  and  _321
REMARK  137  A    between atoms: _327  and  _329
REMARK  138  A    between atoms: _329  and  _330
REMARK  139  A    between atoms: _329  and  _332
REMARK  140  A    between atoms: _332  and  _333
REMARK  141  A    between atoms: _336  and  _338
REMARK  142  A    between atoms: _338  and  _339
REMARK  143  A    between atoms: _338  and  _341
REMARK  144  A    between atoms: _341  and  _342
REMARK  145  A    between atoms: _345  and  _347
REMARK  146  A    between atoms: _347  and  _348
REMARK  147  A    between atoms: _347  and  _350
REMARK  148  A    between atoms: _350  and  _351
REMARK  149  A    between atoms: _356  and  _358
REMARK  150  A    between atoms: _358  and  _359
REMARK  151  A    between atoms: _358  and  _361
REMARK  152  A    between atoms: _361  and  _362
REMARK  153  A    between atoms: _365  and  _367
REMARK  154  A    between atoms: _367  and  _368
REMARK  155  A    between atoms: _367  and  _370
REMARK  156  A    between atoms: _370  and  _371
REMARK  157  A    between atoms: _371  and  _372
REMARK  158  A    between atoms: _377  and  _379
REMARK  159  A    between atoms: _379  and  _380
REMARK  160  A    between atoms: _382  and  _384
REMARK  161  A    between atoms: _384  and  _385
REMARK  162  A    between atoms: _384  and  _387
REMARK  163  A    between atoms: _387  and  _388
REMARK  164  A    between atoms: _394  and  _396
REMARK  165  A    between atoms: _396  and  _397
REMARK  166  A    between atoms: _396  and  _399
REMARK  167  A    between atoms: _399  and  _400
REMARK  168  A    between atoms: _403  and  _405
REMARK  169  A    between atoms: _405  and  _406
REMARK  170  A    between atoms: _409  and  _411
REMARK  171  A    between atoms: _411  and  _412
REMARK  172  A    between atoms: _411  and  _414
REMARK  173  A    between atoms: _414  and  _415
REMARK  174  A    between atoms: _418  and  _420
REMARK  175  A    between atoms: _420  and  _421
REMARK  176  A    between atoms: _420  and  _423
REMARK  177  A    between atoms: _423  and  _424
REMARK  178  A    between atoms: _427  and  _429
REMARK  179  A    between atoms: _429  and  _430
REMARK  180  A    between atoms: _432  and  _434
REMARK  181  A    between atoms: _434  and  _435
REMARK  182  A    between atoms: _434  and  _437
REMARK  183  A    between atoms: _437  and  _438
REMARK  184  A    between atoms: _441  and  _443
REMARK  185  A    between atoms: _443  and  _444
REMARK  186  A    between atoms: _443  and  _446
REMARK  187  A    between atoms: _446  and  _447
REMARK  188  A    between atoms: _450  and  _452
REMARK  189  A    between atoms: _452  and  _453
REMARK  190  A    between atoms: _452  and  _455
REMARK  191  A    between atoms: _455  and  _456
REMARK  192  A    between atoms: _459  and  _461
REMARK  193  A    between atoms: _461  and  _462
REMARK  194  A    between atoms: _461  and  _464
REMARK  195  A    between atoms: _464  and  _465
REMARK  196  A    between atoms: _470  and  _471
REMARK  197  A    between atoms: _473  and  _475
REMARK  198  A    between atoms: _475  and  _476
REMARK  199  A    between atoms: _478  and  _480
REMARK  200  A    between atoms: _480  and  _481
REMARK  201  A    between atoms: _480  and  _483
REMARK  202  A    between atoms: _483  and  _484
REMARK  203  A    between atoms: _490  and  _492
REMARK  204  A    between atoms: _492  and  _493
REMARK  205  A    between atoms: _492  and  _495
REMARK  206  A    between atoms: _495  and  _496
REMARK  207  A    between atoms: _502  and  _504
REMARK  208  A    between atoms: _504  and  _505
REMARK  209  A    between atoms: _507  and  _509
REMARK  210  A    between atoms: _509  and  _510
REMARK  211  A    between atoms: _512  and  _514
REMARK  212  A    between atoms: _514  and  _515
REMARK  213  A    between atoms: _514  and  _517
REMARK  214  A    between atoms: _517  and  _518
REMARK  215  A    between atoms: _518  and  _519
REMARK  216  A    between atoms: _524  and  _526
REMARK  217  A    between atoms: _526  and  _527
REMARK  218  A    between atoms: _529  and  _531
REMARK  219  A    between atoms: _531  and  _532
REMARK  220  A    between atoms: _531  and  _534
REMARK  221  A    between atoms: _534  and  _535
REMARK  222  A    between atoms: _538  and  _540
REMARK  223  A    between atoms: _540  and  _541
REMARK  224  A    between atoms: _543  and  _545
REMARK  225  A    between atoms: _545  and  _546
REMARK  226  A    between atoms: _545  and  _548
REMARK  227  A    between atoms: _548  and  _549
REMARK  228  A    between atoms: _552  and  _554
REMARK  229  A    between atoms: _554  and  _555
REMARK  230  A    between atoms: _554  and  _557
REMARK  231  A    between atoms: _557  and  _558
REMARK  232  A    between atoms: _563  and  _565
REMARK  233  A    between atoms: _565  and  _566
REMARK  234  A    between atoms: _565  and  _568
REMARK  235  A    between atoms: _568  and  _569
REMARK  236  A    between atoms: _572  and  _574
REMARK  237  A    between atoms: _574  and  _575
REMARK  238  A    between atoms: _577  and  _579
REMARK  239  A    between atoms: _579  and  _580
REMARK  240  A    between atoms: _579  and  _582
REMARK  241  A    between atoms: _582  and  _583
REMARK                            x       y       z     vdW  Elec       q    Type
REMARK                         _______ _______ _______ _____ _____    ______ ____
ROOT
ATOM      1  O   HOH     1       0.928  25.854  16.353  0.00  0.00    +0.000 OA
ENDROOT
TORSDOF 0
