REMARK  Name = ../refined-set-2016/4bco/4bco_pocket.pdb
REMARK  228 active torsions:
REMARK  status: ('A' for Active; 'I' for Inactive)
REMARK    1  A    between atoms: _1  and  _3
REMARK    2  A    between atoms: _3  and  _4
REMARK    3  A    between atoms: _3  and  _6
REMARK    4  A    between atoms: _9  and  _11
REMARK    5  A    between atoms: _11  and  _12
REMARK    6  A    between atoms: _11  and  _14
REMARK    7  A    between atoms: _14  and  _15
REMARK    8  A    between atoms: _15  and  _16
REMARK    9  A    between atoms: _19  and  _21
REMARK   10  A    between atoms: _21  and  _22
REMARK   11  A    between atoms: _21  and  _24
REMARK   12  A    between atoms: _24  and  _25
REMARK   13  A    between atoms: _25  and  _26
REMARK   14  A    between atoms: _26  and  _27
REMARK   15  A    between atoms: _27  and  _28
REMARK   16  A    between atoms: _32  and  _34
REMARK   17  A    between atoms: _34  and  _35
REMARK   18  A    between atoms: _34  and  _37
REMARK   19  A    between atoms: _37  and  _38
REMARK   20  A    between atoms: _41  and  _43
REMARK   21  A    between atoms: _43  and  _44
REMARK   22  A    between atoms: _46  and  _48
REMARK   23  A    between atoms: _48  and  _49
REMARK   24  A    between atoms: _48  and  _51
REMARK   25  A    between atoms: _51  and  _52
REMARK   26  A    between atoms: _52  and  _53
REMARK   27  A    between atoms: _56  and  _58
REMARK   28  A    between atoms: _58  and  _59
REMARK   29  A    between atoms: _61  and  _63
REMARK   30  A    between atoms: _63  and  _64
REMARK   31  A    between atoms: _63  and  _66
REMARK   32  A    between atoms: _66  and  _67
REMARK   33  A    between atoms: _70  and  _72
REMARK   34  A    between atoms: _72  and  _73
REMARK   35  A    between atoms: _72  and  _75
REMARK   36  A    between atoms: _75  and  _76
REMARK   37  A    between atoms: _81  and  _82
REMARK   38  A    between atoms: _84  and  _86
REMARK   39  A    between atoms: _86  and  _87
REMARK   40  A    between atoms: _89  and  _91
REMARK   41  A    between atoms: _91  and  _92
REMARK   42  A    between atoms: _91  and  _94
REMARK   43  A    between atoms: _97  and  _99
REMARK   44  A    between atoms: _99  and  _100
REMARK   45  A    between atoms: _99  and  _102
REMARK   46  A    between atoms: _105  and  _107
REMARK   47  A    between atoms: _107  and  _108
REMARK   48  A    between atoms: _107  and  _110
REMARK   49  A    between atoms: _110  and  _111
REMARK   50  A    between atoms: _116  and  _117
REMARK   51  A    between atoms: _119  and  _121
REMARK   52  A    between atoms: _121  and  _122
REMARK   53  A    between atoms: _121  and  _124
REMARK   54  A    between atoms: _124  and  _125
REMARK   55  A    between atoms: _125  and  _126
REMARK   56  A    between atoms: _126  and  _127
REMARK   57  A    between atoms: _127  and  _128
REMARK   58  A    between atoms: _132  and  _134
REMARK   59  A    between atoms: _134  and  _135
REMARK   60  A    between atoms: _138  and  _140
REMARK   61  A    between atoms: _140  and  _141
REMARK   62  A    between atoms: _140  and  _143
REMARK   63  A    between atoms: _146  and  _148
REMARK   64  A    between atoms: _148  and  _149
REMARK   65  A    between atoms: _148  and  _151
REMARK   66  A    between atoms: _154  and  _156
REMARK   67  A    between atoms: _156  and  _157
REMARK   68  A    between atoms: _160  and  _162
REMARK   69  A    between atoms: _162  and  _163
REMARK   70  A    between atoms: _162  and  _165
REMARK   71  A    between atoms: _165  and  _166
REMARK   72  A    between atoms: _169  and  _171
REMARK   73  A    between atoms: _171  and  _172
REMARK   74  A    between atoms: _171  and  _174
REMARK   75  A    between atoms: _174  and  _175
REMARK   76  A    between atoms: _175  and  _176
REMARK   77  A    between atoms: _176  and  _177
REMARK   78  A    between atoms: _177  and  _178
REMARK   79  A    between atoms: _182  and  _184
REMARK   80  A    between atoms: _184  and  _185
REMARK   81  A    between atoms: _184  and  _187
REMARK   82  A    between atoms: _187  and  _188
REMARK   83  A    between atoms: _188  and  _189
REMARK   84  A    between atoms: _189  and  _190
REMARK   85  A    between atoms: _190  and  _191
REMARK   86  A    between atoms: _195  and  _197
REMARK   87  A    between atoms: _197  and  _198
REMARK   88  A    between atoms: _197  and  _200
REMARK   89  A    between atoms: _200  and  _201
REMARK   90  A    between atoms: _201  and  _202
REMARK   91  A    between atoms: _205  and  _207
REMARK   92  A    between atoms: _207  and  _208
REMARK   93  A    between atoms: _207  and  _210
REMARK   94  A    between atoms: _210  and  _211
REMARK   95  A    between atoms: _214  and  _216
REMARK   96  A    between atoms: _216  and  _217
REMARK   97  A    between atoms: _216  and  _219
REMARK   98  A    between atoms: _219  and  _220
REMARK   99  A    between atoms: _223  and  _225
REMARK  100  A    between atoms: _225  and  _226
REMARK  101  A    between atoms: _225  and  _228
REMARK  102  A    between atoms: _231  and  _233
REMARK  103  A    between atoms: _233  and  _234
REMARK  104  A    between atoms: _233  and  _236
REMARK  105  A    between atoms: _236  and  _237
REMARK  106  A    between atoms: _237  and  _238
REMARK  107  A    between atoms: _238  and  _239
REMARK  108  A    between atoms: _239  and  _240
REMARK  109  A    between atoms: _244  and  _246
REMARK  110  A    between atoms: _246  and  _247
REMARK  111  A    between atoms: _246  and  _249
REMARK  112  A    between atoms: _249  and  _250
REMARK  113  A    between atoms: _253  and  _255
REMARK  114  A    between atoms: _255  and  _256
REMARK  115  A    between atoms: _255  and  _258
REMARK  116  A    between atoms: _258  and  _259
REMARK  117  A    between atoms: _262  and  _264
REMARK  118  A    between atoms: _264  and  _265
REMARK  119  A    between atoms: _264  and  _267
REMARK  120  A    between atoms: _267  and  _268
REMARK  121  A    between atoms: _271  and  _273
REMARK  122  A    between atoms: _273  and  _274
REMARK  123  A    between atoms: _273  and  _276
REMARK  124  A    between atoms: _279  and  _281
REMARK  125  A    between atoms: _281  and  _282
REMARK  126  A    between atoms: _281  and  _284
REMARK  127  A    between atoms: _284  and  _285
REMARK  128  A    between atoms: _291  and  _293
REMARK  129  A    between atoms: _293  and  _294
REMARK  130  A    between atoms: _293  and  _296
REMARK  131  A    between atoms: _296  and  _297
REMARK  132  A    between atoms: _297  and  _298
REMARK  133  A    between atoms: _301  and  _303
REMARK  134  A    between atoms: _303  and  _304
REMARK  135  A    between atoms: _303  and  _306
REMARK  136  A    between atoms: _306  and  _307
REMARK  137  A    between atoms: _313  and  _315
REMARK  138  A    between atoms: _315  and  _316
REMARK  139  A    between atoms: _315  and  _318
REMARK  140  A    between atoms: _318  and  _319
REMARK  141  A    between atoms: _322  and  _324
REMARK  142  A    between atoms: _324  and  _325
REMARK  143  A    between atoms: _324  and  _327
REMARK  144  A    between atoms: _327  and  _328
REMARK  145  A    between atoms: _333  and  _335
REMARK  146  A    between atoms: _335  and  _336
REMARK  147  A    between atoms: _335  and  _338
REMARK  148  A    between atoms: _338  and  _339
REMARK  149  A    between atoms: _339  and  _340
REMARK  150  A    between atoms: _345  and  _347
REMARK  151  A    between atoms: _347  and  _348
REMARK  152  A    between atoms: _347  and  _350
REMARK  153  A    between atoms: _350  and  _351
REMARK  154  A    between atoms: _354  and  _356
REMARK  155  A    between atoms: _356  and  _357
REMARK  156  A    between atoms: _356  and  _359
REMARK  157  A    between atoms: _359  and  _360
REMARK  158  A    between atoms: _363  and  _365
REMARK  159  A    between atoms: _365  and  _366
REMARK  160  A    between atoms: _365  and  _368
REMARK  161  A    between atoms: _368  and  _369
REMARK  162  A    between atoms: _369  and  _370
REMARK  163  A    between atoms: _370  and  _371
REMARK  164  A    between atoms: _371  and  _372
REMARK  165  A    between atoms: _376  and  _378
REMARK  166  A    between atoms: _378  and  _379
REMARK  167  A    between atoms: _378  and  _381
REMARK  168  A    between atoms: _381  and  _382
REMARK  169  A    between atoms: _382  and  _383
REMARK  170  A    between atoms: _383  and  _384
REMARK  171  A    between atoms: _384  and  _385
REMARK  172  A    between atoms: _389  and  _391
REMARK  173  A    between atoms: _391  and  _392
REMARK  174  A    between atoms: _391  and  _394
REMARK  175  A    between atoms: _394  and  _395
REMARK  176  A    between atoms: _401  and  _403
REMARK  177  A    between atoms: _403  and  _404
REMARK  178  A    between atoms: _403  and  _406
REMARK  179  A    between atoms: _406  and  _407
REMARK  180  A    between atoms: _410  and  _412
REMARK  181  A    between atoms: _412  and  _413
REMARK  182  A    between atoms: _412  and  _415
REMARK  183  A    between atoms: _415  and  _416
REMARK  184  A    between atoms: _416  and  _417
REMARK  185  A    between atoms: _417  and  _418
REMARK  186  A    between atoms: _418  and  _419
REMARK  187  A    between atoms: _424  and  _425
REMARK  188  A    between atoms: _430  and  _432
REMARK  189  A    between atoms: _432  and  _433
REMARK  190  A    between atoms: _432  and  _435
REMARK  191  A    between atoms: _435  and  _436
REMARK  192  A    between atoms: _436  and  _437
REMARK  193  A    between atoms: _442  and  _444
REMARK  194  A    between atoms: _444  and  _445
REMARK  195  A    between atoms: _444  and  _447
REMARK  196  A    between atoms: _447  and  _448
REMARK  197  A    between atoms: _453  and  _455
REMARK  198  A    between atoms: _455  and  _456
REMARK  199  A    between atoms: _455  and  _458
REMARK  200  A    between atoms: _458  and  _459
REMARK  201  A    between atoms: _462  and  _464
REMARK  202  A    between atoms: _464  and  _465
REMARK  203  A    between atoms: _464  and  _467
REMARK  204  A    between atoms: _467  and  _468
REMARK  205  A    between atoms: _471  and  _473
REMARK  206  A    between atoms: _473  and  _474
REMARK  207  A    between atoms: _473  and  _476
REMARK  208  A    between atoms: _476  and  _477
REMARK  209  A    between atoms: _480  and  _482
REMARK  210  A    between atoms: _482  and  _483
REMARK  211  A    between atoms: _482  and  _485
REMARK  212  A    between atoms: _485  and  _486
REMARK  213  A    between atoms: _489  and  _491
REMARK  214  A    between atoms: _491  and  _492
REMARK  215  A    between atoms: _495  and  _497
REMARK  216  A    between atoms: _497  and  _498
REMARK  217  A    between atoms: _497  and  _500
REMARK  218  A    between atoms: _500  and  _501
REMARK  219  A    between atoms: _504  and  _506
REMARK  220  A    between atoms: _506  and  _507
REMARK  221  A    between atoms: _506  and  _509
REMARK  222  A    between atoms: _509  and  _510
REMARK  223  A    between atoms: _516  and  _518
REMARK  224  A    between atoms: _518  and  _519
REMARK  225  A    between atoms: _521  and  _523
REMARK  226  A    between atoms: _523  and  _524
REMARK  227  A    between atoms: _523  and  _526
REMARK  228  A    between atoms: _526  and  _527
REMARK                            x       y       z     vdW  Elec       q    Type
REMARK                         _______ _______ _______ _____ _____    ______ ____
ROOT
ATOM      1  C   THR A   8      -1.593  14.844 -15.847  0.00  0.00    +0.243 C 
ATOM      2  O   THR A   8      -0.614  14.326 -15.301  0.00  0.00    -0.273 OA
ATOM      3  N   TYR A   9      -2.403  14.186 -16.668  0.00  0.00    -0.297 N 
ATOM      4  H   TYR A   9      -3.240  14.675 -17.045  0.00  0.00    +0.150 HD
ENDROOT
BRANCH   3   5
ATOM      5  CA  TYR A   9      -2.163  12.806 -17.059  0.00  0.00    +0.153 C 
BRANCH   5   6
ATOM      6  C   TYR A   9      -2.701  12.618 -18.472  0.00  0.00    +0.241 C 
ATOM      7  O   TYR A   9      -3.814  13.033 -18.771  0.00  0.00    -0.273 OA
ATOM      8  N   GLY A  10      -1.910  12.008 -19.347  0.00  0.00    -0.295 N 
ATOM      9  H   GLY A  10      -0.964  11.692 -19.052  0.00  0.00    +0.150 HD
BRANCH   8  10
ATOM     10  CA  GLY A  10      -2.351  11.777 -20.709  0.00  0.00    +0.176 C 
BRANCH  10  11
ATOM     11  C   GLY A  10      -1.969  12.891 -21.667  0.00  0.00    +0.243 C 
ATOM     12  O   GLY A  10      -1.323  13.868 -21.282  0.00  0.00    -0.273 OA
ATOM     13  N   VAL A  11      -2.374  12.738 -22.923  0.00  0.00    -0.297 N 
ATOM     14  H   VAL A  11      -2.982  11.927 -23.158  0.00  0.00    +0.150 HD
BRANCH  13  15
ATOM     15  CA  VAL A  11      -1.998  13.666 -23.987  0.00  0.00    +0.149 C 
BRANCH  15  16
ATOM     16  C   VAL A  11      -3.244  14.319 -24.581  0.00  0.00    +0.241 C 
ATOM     17  O   VAL A  11      -4.270  13.658 -24.753  0.00  0.00    -0.273 OA
ATOM     18  N   VAL A  12      -3.159  15.612 -24.883  0.00  0.00    -0.297 N 
ATOM     19  H   VAL A  12      -2.247  16.102 -24.779  0.00  0.00    +0.150 HD
BRANCH  18  20
ATOM     20  CA  VAL A  12      -4.324  16.358 -25.359  0.00  0.00    +0.149 C 
BRANCH  20  21
ATOM     21  C   VAL A  12      -4.206  16.783 -26.816  0.00  0.00    +0.241 C 
ATOM     22  O   VAL A  12      -3.194  17.346 -27.227  0.00  0.00    -0.273 OA
ATOM     23  N   TYR A  13      -5.259  16.517 -27.584  0.00  0.00    -0.297 N 
ATOM     24  H   TYR A  13      -6.058  15.994 -27.172  0.00  0.00    +0.150 HD
BRANCH  23  25
ATOM     25  CA  TYR A  13      -5.338  16.929 -28.980  0.00  0.00    +0.153 C 
BRANCH  25  26
ATOM     26  C   TYR A  13      -6.525  17.849 -29.205  0.00  0.00    +0.241 C 
ATOM     27  O   TYR A  13      -7.545  17.729 -28.535  0.00  0.00    -0.273 OA
ATOM     28  N   LYS A  14      -6.388  18.763 -30.156  0.00  0.00    -0.297 N 
ATOM     29  H   LYS A  14      -5.440  18.970 -30.529  0.00  0.00    +0.150 HD
BRANCH  28  30
ATOM     30  CA  LYS A  14      -7.536  19.483 -30.690  0.00  0.00    +0.149 C 
BRANCH  30  31
ATOM     31  C   LYS A  14      -8.091  18.675 -31.861  0.00  0.00    +0.241 C 
ATOM     32  N   ALA A  15      -9.406  18.511 -31.920  0.00  0.00    -0.298 N 
ATOM     33  H   ALA A  15     -10.016  18.957 -31.206  0.00  0.00    +0.150 HD
ATOM     34  O   LYS A  14      -7.332  18.205 -32.706  0.00  0.00    -0.273 OA
BRANCH  32  35
ATOM     35  CA  ALA A  15      -9.999  17.708 -32.983  0.00  0.00    +0.137 C 
ATOM     36  CB  ALA A  15     -10.163  16.251 -32.534  0.00  0.00    +0.030 C 
BRANCH  35  37
ATOM     37  C   ALA A  15     -11.335  18.287 -33.413  0.00  0.00    +0.227 C 
ATOM     38  O   ALA A  15     -11.857  19.197 -32.779  0.00  0.00    -0.286 OA
ENDBRANCH  35  37
ENDBRANCH  32  35
ENDBRANCH  30  31
BRANCH  30  39
ATOM     39  CB  LYS A  14      -7.118  20.868 -31.174  0.00  0.00    +0.029 C 
BRANCH  39  40
ATOM     40  CG  LYS A  14      -8.240  21.654 -31.852  0.00  0.00    +0.000 C 
BRANCH  40  41
ATOM     41  CD  LYS A  14      -7.750  23.017 -32.331  0.00  0.00    -0.024 C 
BRANCH  41  42
ATOM     42  CE  LYS A  14      -8.857  23.788 -33.047  0.00  0.00    -0.086 C 
BRANCH  42  43
ATOM     43  NZ  LYS A  14      -8.364  25.074 -33.623  0.00  0.00    +0.380 N 
ATOM     44  HZ1 LYS A  14      -7.992  25.674 -32.860  0.00  0.00    -0.089 HD
ATOM     45  HZ2 LYS A  14      -9.149  25.563 -34.099  0.00  0.00    -0.089 HD
ATOM     46  HZ3 LYS A  14      -7.609  24.878 -34.310  0.00  0.00    -0.089 HD
ENDBRANCH  42  43
ENDBRANCH  41  42
ENDBRANCH  40  41
ENDBRANCH  39  40
ENDBRANCH  30  39
ENDBRANCH  28  30
ENDBRANCH  25  26
BRANCH  25  47
ATOM     47  CB  TYR A  13      -5.514  15.713 -29.888  0.00  0.00    +0.055 C 
BRANCH  47  48
ATOM     48  CG  TYR A  13      -4.421  14.690 -29.765  0.00  0.00    -0.020 A 
ATOM     49  CD2 TYR A  13      -4.509  13.668 -28.830  0.00  0.00    -0.001 A 
ATOM     50  CE2 TYR A  13      -3.509  12.723 -28.711  0.00  0.00    +0.036 A 
ATOM     51  CZ  TYR A  13      -2.403  12.795 -29.532  0.00  0.00    +0.134 A 
ATOM     52  CE1 TYR A  13      -2.293  13.803 -30.472  0.00  0.00    +0.036 A 
ATOM     53  CD1 TYR A  13      -3.301  14.742 -30.585  0.00  0.00    -0.001 A 
BRANCH  51  54
ATOM     54  OH  TYR A  13      -1.411  11.848 -29.408  0.00  0.00    -0.506 OA
ATOM     55  HH  TYR A  13      -1.654  11.209 -28.692  0.00  0.00    +0.292 HD
ENDBRANCH  51  54
ENDBRANCH  47  48
ENDBRANCH  25  47
ENDBRANCH  23  25
ENDBRANCH  20  21
BRANCH  20  56
ATOM     56  CB  VAL A  12      -4.601  17.608 -24.489  0.00  0.00    +0.027 C 
ATOM     57  CG2 VAL A  12      -4.670  17.222 -23.017  0.00  0.00    +0.002 C 
ATOM     58  CG1 VAL A  12      -5.899  18.307 -24.931  0.00  0.00    +0.002 C 
ENDBRANCH  20  56
ENDBRANCH  18  20
ENDBRANCH  15  16
BRANCH  15  59
ATOM     59  CB  VAL A  11      -1.210  12.938 -25.093  0.00  0.00    +0.027 C 
ATOM     60  CG2 VAL A  11       0.066  12.341 -24.518  0.00  0.00    +0.002 C 
ATOM     61  CG1 VAL A  11      -0.887  13.884 -26.243  0.00  0.00    +0.002 C 
ENDBRANCH  15  59
ENDBRANCH  13  15
ENDBRANCH  10  11
ENDBRANCH   8  10
ENDBRANCH   5   6
BRANCH   5  62
ATOM     62  CB  TYR A   9      -2.868  11.854 -16.093  0.00  0.00    +0.055 C 
BRANCH  62  63
ATOM     63  CG  TYR A   9      -2.371  10.425 -16.154  0.00  0.00    -0.020 A 
ATOM     64  CD2 TYR A   9      -1.404   9.967 -15.266  0.00  0.00    -0.001 A 
ATOM     65  CE2 TYR A   9      -0.948   8.660 -15.315  0.00  0.00    +0.036 A 
ATOM     66  CZ  TYR A   9      -1.460   7.794 -16.259  0.00  0.00    +0.134 A 
ATOM     67  CE1 TYR A   9      -2.422   8.225 -17.151  0.00  0.00    +0.036 A 
ATOM     68  CD1 TYR A   9      -2.872   9.533 -17.095  0.00  0.00    -0.001 A 
BRANCH  66  69
ATOM     69  OH  TYR A   9      -1.007   6.495 -16.311  0.00  0.00    -0.506 OA
ATOM     70  HH  TYR A   9      -1.473   6.013 -17.039  0.00  0.00    +0.292 HD
ENDBRANCH  66  69
ENDBRANCH  62  63
ENDBRANCH   5  62
ENDBRANCH   3   5
BRANCH   1  71
ATOM     71  CA  THR A   8      -1.939  16.317 -15.629  0.00  0.00    +0.176 C 
BRANCH  71  73
ATOM     72  C   GLY A   7      -1.868  16.870 -17.984  0.00  0.00    +0.243 C 
ATOM     73  N   THR A   8      -2.554  16.838 -16.845  0.00  0.00    -0.295 N 
ATOM     74  H   THR A   8      -3.534  17.186 -16.821  0.00  0.00    +0.150 HD
ATOM     75  O   GLY A   7      -0.668  16.593 -18.043  0.00  0.00    -0.273 OA
BRANCH  72  76
ATOM     76  CA  GLY A   7      -2.627  17.272 -19.236  0.00  0.00    +0.176 C 
BRANCH  76  78
ATOM     77  C   GLU A   6      -0.883  17.673 -20.870  0.00  0.00    +0.241 C 
ATOM     78  N   GLY A   7      -1.857  16.895 -20.407  0.00  0.00    -0.295 N 
ATOM     79  H   GLY A   7      -2.071  16.001 -20.893  0.00  0.00    +0.150 HD
ATOM     80  O   GLU A   6      -0.673  18.805 -20.438  0.00  0.00    -0.273 OA
BRANCH  77  81
ATOM     81  CA  GLU A   6      -0.014  17.095 -21.986  0.00  0.00    +0.149 C 
BRANCH  81  83
ATOM     82  C   GLY A   5      -0.204  18.117 -24.201  0.00  0.00    +0.243 C 
ATOM     83  N   GLU A   6       0.319  18.122 -22.976  0.00  0.00    -0.297 N 
ATOM     84  H   GLU A   6       0.984  18.878 -22.715  0.00  0.00    +0.150 HD
ATOM     85  O   GLY A   5      -0.899  17.196 -24.627  0.00  0.00    -0.273 OA
BRANCH  82  86
ATOM     86  CA  GLY A   5       0.103  19.315 -25.082  0.00  0.00    +0.176 C 
BRANCH  86  88
ATOM     87  C   ILE A   4      -1.064  20.666 -26.746  0.00  0.00    +0.241 C 
ATOM     88  N   GLY A   5      -0.901  19.505 -26.117  0.00  0.00    -0.295 N 
ATOM     89  H   GLY A   5      -1.513  18.705 -26.375  0.00  0.00    +0.150 HD
ATOM     90  O   ILE A   4      -0.388  21.659 -26.495  0.00  0.00    -0.273 OA
BRANCH  87  91
ATOM     91  CA  ILE A   4      -2.162  20.724 -27.813  0.00  0.00    +0.149 C 
BRANCH  91  93
ATOM     92  C   LYS A   3      -1.313  19.421 -29.700  0.00  0.00    +0.241 C 
ATOM     93  N   ILE A   4      -2.146  19.544 -28.671  0.00  0.00    -0.297 N 
ATOM     94  H   ILE A   4      -2.811  18.770 -28.470  0.00  0.00    +0.150 HD
ATOM     95  O   LYS A   3      -0.493  20.281 -30.006  0.00  0.00    -0.273 OA
BRANCH  92  96
ATOM     96  CA  LYS A   3      -1.438  18.140 -30.517  0.00  0.00    +0.149 C 
BRANCH  96  99
ATOM     97  C   GLU A   2      -2.955  18.688 -32.338  0.00  0.00    +0.241 C 
ATOM     98  O   GLU A   2      -3.942  18.590 -31.610  0.00  0.00    -0.273 OA
ATOM     99  N   LYS A   3      -1.716  18.458 -31.912  0.00  0.00    -0.297 N 
ATOM    100  H   LYS A   3      -0.928  18.506 -32.589  0.00  0.00    +0.150 HD
BRANCH  97 101
ATOM    101  CA  GLU A   2      -3.101  19.090 -33.805  0.00  0.00    +0.149 C 
BRANCH 101 103
ATOM    102  C   VAL A   1      -4.798  19.242 -35.548  0.00  0.00    +0.238 C 
ATOM    103  N   GLU A   2      -4.471  18.962 -34.289  0.00  0.00    -0.297 N 
ATOM    104  H   GLU A   2      -5.212  18.643 -33.633  0.00  0.00    +0.150 HD
ATOM    105  O   VAL A   1      -3.980  19.640 -36.383  0.00  0.00    -0.274 OA
BRANCH 102 106
ATOM    106  CA  VAL A   1      -6.264  19.038 -35.928  0.00  0.00    +0.145 C 
BRANCH 106 107
ATOM    107  CB  VAL A   1      -7.095  20.251 -35.461  0.00  0.00    +0.025 C 
ATOM    108  CG2 VAL A   1      -8.565  20.050 -35.811  0.00  0.00    +0.002 C 
ATOM    109  CG1 VAL A   1      -6.568  21.532 -36.086  0.00  0.00    +0.002 C 
ENDBRANCH 106 107
BRANCH 106 110
ATOM    110  N   VAL A   1      -6.786  17.796 -35.372  0.00  0.00    -0.238 NA
ATOM    111  H   VAL A   1      -7.029  17.760 -34.361  0.00  0.00    +0.142 HD
ENDBRANCH 106 110
ENDBRANCH 102 106
ENDBRANCH 101 103
BRANCH 101 112
ATOM    112  CB  GLU A   2      -2.594  20.520 -34.008  0.00  0.00    +0.041 C 
BRANCH 112 113
ATOM    113  CG  GLU A   2      -3.485  21.595 -33.410  0.00  0.00    +0.116 C 
BRANCH 113 114
ATOM    114  CD  GLU A   2      -2.982  22.993 -33.720  0.00  0.00    +0.365 C 
ATOM    115  OE2 GLU A   2      -2.136  23.505 -32.955  0.00  0.00    -0.246 OA
ATOM    116  OE1 GLU A   2      -3.427  23.579 -34.731  0.00  0.00    -0.246 OA
ENDBRANCH 113 114
ENDBRANCH 112 113
ENDBRANCH 101 112
ENDBRANCH  97 101
ENDBRANCH  96  99
BRANCH  96 117
ATOM    117  CB  LYS A   3      -0.167  17.297 -30.389  0.00  0.00    +0.029 C 
BRANCH 117 118
ATOM    118  CG  LYS A   3       0.250  17.023 -28.949  0.00  0.00    +0.000 C 
BRANCH 118 119
ATOM    119  CD  LYS A   3       1.540  16.214 -28.875  0.00  0.00    -0.024 C 
BRANCH 119 120
ATOM    120  CE  LYS A   3       2.083  16.165 -27.451  0.00  0.00    -0.086 C 
BRANCH 120 121
ATOM    121  NZ  LYS A   3       3.359  15.397 -27.350  0.00  0.00    +0.380 N 
ATOM    122  HZ1 LYS A   3       3.684  15.395 -26.362  0.00  0.00    -0.089 HD
ATOM    123  HZ2 LYS A   3       3.199  14.419 -27.666  0.00  0.00    -0.089 HD
ATOM    124  HZ3 LYS A   3       4.080  15.844 -27.952  0.00  0.00    -0.089 HD
ENDBRANCH 120 121
ENDBRANCH 119 120
ENDBRANCH 118 119
ENDBRANCH 117 118
ENDBRANCH  96 117
ENDBRANCH  92  96
ENDBRANCH  91  93
BRANCH  91 125
ATOM    125  CB  ILE A   4      -3.532  20.887 -27.115  0.00  0.00    +0.027 C 
ATOM    126  CG2 ILE A   4      -3.505  22.050 -26.133  0.00  0.00    +0.002 C 
BRANCH 125 127
ATOM    127  CG1 ILE A   4      -4.642  21.091 -28.145  0.00  0.00    +0.002 C 
ATOM    128  CD1 ILE A   4      -6.015  21.281 -27.526  0.00  0.00    +0.000 C 
ENDBRANCH 125 127
ENDBRANCH  91 125
ENDBRANCH  87  91
ENDBRANCH  86  88
ENDBRANCH  82  86
ENDBRANCH  81  83
BRANCH  81 129
ATOM    129  CB  GLU A   6       1.251  16.491 -21.362  0.00  0.00    +0.041 C 
BRANCH 129 130
ATOM    130  CG  GLU A   6       2.083  15.619 -22.295  0.00  0.00    +0.116 C 
BRANCH 130 131
ATOM    131  CD  GLU A   6       3.189  14.870 -21.561  0.00  0.00    +0.365 C 
ATOM    132  OE2 GLU A   6       3.154  14.835 -20.310  0.00  0.00    -0.246 OA
ATOM    133  OE1 GLU A   6       4.095  14.320 -22.233  0.00  0.00    -0.246 OA
ENDBRANCH 130 131
ENDBRANCH 129 130
ENDBRANCH  81 129
ENDBRANCH  77  81
ENDBRANCH  76  78
ENDBRANCH  72  76
ENDBRANCH  71  73
BRANCH  71 134
ATOM    134  CB  THR A   8      -2.856  16.482 -14.399  0.00  0.00    +0.137 C 
ATOM    135  CG2 THR A   8      -2.336  15.648 -13.235  0.00  0.00    +0.034 C 
BRANCH 134 136
ATOM    136  OG1 THR A   8      -2.885  17.863 -14.011  0.00  0.00    -0.382 OA
ATOM    137  HG1 THR A   8      -3.473  17.971 -13.222  0.00  0.00    +0.210 HD
ENDBRANCH 134 136
ENDBRANCH  71 134
ENDBRANCH   1  71
TORSDOF 59
REMARK  Name = ../refined-set-2016/4bco/4bco_pocket.pdb
REMARK  228 active torsions:
REMARK  status: ('A' for Active; 'I' for Inactive)
REMARK    1  A    between atoms: _1  and  _3
REMARK    2  A    between atoms: _3  and  _4
REMARK    3  A    between atoms: _3  and  _6
REMARK    4  A    between atoms: _9  and  _11
REMARK    5  A    between atoms: _11  and  _12
REMARK    6  A    between atoms: _11  and  _14
REMARK    7  A    between atoms: _14  and  _15
REMARK    8  A    between atoms: _15  and  _16
REMARK    9  A    between atoms: _19  and  _21
REMARK   10  A    between atoms: _21  and  _22
REMARK   11  A    between atoms: _21  and  _24
REMARK   12  A    between atoms: _24  and  _25
REMARK   13  A    between atoms: _25  and  _26
REMARK   14  A    between atoms: _26  and  _27
REMARK   15  A    between atoms: _27  and  _28
REMARK   16  A    between atoms: _32  and  _34
REMARK   17  A    between atoms: _34  and  _35
REMARK   18  A    between atoms: _34  and  _37
REMARK   19  A    between atoms: _37  and  _38
REMARK   20  A    between atoms: _41  and  _43
REMARK   21  A    between atoms: _43  and  _44
REMARK   22  A    between atoms: _46  and  _48
REMARK   23  A    between atoms: _48  and  _49
REMARK   24  A    between atoms: _48  and  _51
REMARK   25  A    between atoms: _51  and  _52
REMARK   26  A    between atoms: _52  and  _53
REMARK   27  A    between atoms: _56  and  _58
REMARK   28  A    between atoms: _58  and  _59
REMARK   29  A    between atoms: _61  and  _63
REMARK   30  A    between atoms: _63  and  _64
REMARK   31  A    between atoms: _63  and  _66
REMARK   32  A    between atoms: _66  and  _67
REMARK   33  A    between atoms: _70  and  _72
REMARK   34  A    between atoms: _72  and  _73
REMARK   35  A    between atoms: _72  and  _75
REMARK   36  A    between atoms: _75  and  _76
REMARK   37  A    between atoms: _81  and  _82
REMARK   38  A    between atoms: _84  and  _86
REMARK   39  A    between atoms: _86  and  _87
REMARK   40  A    between atoms: _89  and  _91
REMARK   41  A    between atoms: _91  and  _92
REMARK   42  A    between atoms: _91  and  _94
REMARK   43  A    between atoms: _97  and  _99
REMARK   44  A    between atoms: _99  and  _100
REMARK   45  A    between atoms: _99  and  _102
REMARK   46  A    between atoms: _105  and  _107
REMARK   47  A    between atoms: _107  and  _108
REMARK   48  A    between atoms: _107  and  _110
REMARK   49  A    between atoms: _110  and  _111
REMARK   50  A    between atoms: _116  and  _117
REMARK   51  A    between atoms: _119  and  _121
REMARK   52  A    between atoms: _121  and  _122
REMARK   53  A    between atoms: _121  and  _124
REMARK   54  A    between atoms: _124  and  _125
REMARK   55  A    between atoms: _125  and  _126
REMARK   56  A    between atoms: _126  and  _127
REMARK   57  A    between atoms: _127  and  _128
REMARK   58  A    between atoms: _132  and  _134
REMARK   59  A    between atoms: _134  and  _135
REMARK   60  A    between atoms: _138  and  _140
REMARK   61  A    between atoms: _140  and  _141
REMARK   62  A    between atoms: _140  and  _143
REMARK   63  A    between atoms: _146  and  _148
REMARK   64  A    between atoms: _148  and  _149
REMARK   65  A    between atoms: _148  and  _151
REMARK   66  A    between atoms: _154  and  _156
REMARK   67  A    between atoms: _156  and  _157
REMARK   68  A    between atoms: _160  and  _162
REMARK   69  A    between atoms: _162  and  _163
REMARK   70  A    between atoms: _162  and  _165
REMARK   71  A    between atoms: _165  and  _166
REMARK   72  A    between atoms: _169  and  _171
REMARK   73  A    between atoms: _171  and  _172
REMARK   74  A    between atoms: _171  and  _174
REMARK   75  A    between atoms: _174  and  _175
REMARK   76  A    between atoms: _175  and  _176
REMARK   77  A    between atoms: _176  and  _177
REMARK   78  A    between atoms: _177  and  _178
REMARK   79  A    between atoms: _182  and  _184
REMARK   80  A    between atoms: _184  and  _185
REMARK   81  A    between atoms: _184  and  _187
REMARK   82  A    between atoms: _187  and  _188
REMARK   83  A    between atoms: _188  and  _189
REMARK   84  A    between atoms: _189  and  _190
REMARK   85  A    between atoms: _190  and  _191
REMARK   86  A    between atoms: _195  and  _197
REMARK   87  A    between atoms: _197  and  _198
REMARK   88  A    between atoms: _197  and  _200
REMARK   89  A    between atoms: _200  and  _201
REMARK   90  A    between atoms: _201  and  _202
REMARK   91  A    between atoms: _205  and  _207
REMARK   92  A    between atoms: _207  and  _208
REMARK   93  A    between atoms: _207  and  _210
REMARK   94  A    between atoms: _210  and  _211
REMARK   95  A    between atoms: _214  and  _216
REMARK   96  A    between atoms: _216  and  _217
REMARK   97  A    between atoms: _216  and  _219
REMARK   98  A    between atoms: _219  and  _220
REMARK   99  A    between atoms: _223  and  _225
REMARK  100  A    between atoms: _225  and  _226
REMARK  101  A    between atoms: _225  and  _228
REMARK  102  A    between atoms: _231  and  _233
REMARK  103  A    between atoms: _233  and  _234
REMARK  104  A    between atoms: _233  and  _236
REMARK  105  A    between atoms: _236  and  _237
REMARK  106  A    between atoms: _237  and  _238
REMARK  107  A    between atoms: _238  and  _239
REMARK  108  A    between atoms: _239  and  _240
REMARK  109  A    between atoms: _244  and  _246
REMARK  110  A    between atoms: _246  and  _247
REMARK  111  A    between atoms: _246  and  _249
REMARK  112  A    between atoms: _249  and  _250
REMARK  113  A    between atoms: _253  and  _255
REMARK  114  A    between atoms: _255  and  _256
REMARK  115  A    between atoms: _255  and  _258
REMARK  116  A    between atoms: _258  and  _259
REMARK  117  A    between atoms: _262  and  _264
REMARK  118  A    between atoms: _264  and  _265
REMARK  119  A    between atoms: _264  and  _267
REMARK  120  A    between atoms: _267  and  _268
REMARK  121  A    between atoms: _271  and  _273
REMARK  122  A    between atoms: _273  and  _274
REMARK  123  A    between atoms: _273  and  _276
REMARK  124  A    between atoms: _279  and  _281
REMARK  125  A    between atoms: _281  and  _282
REMARK  126  A    between atoms: _281  and  _284
REMARK  127  A    between atoms: _284  and  _285
REMARK  128  A    between atoms: _291  and  _293
REMARK  129  A    between atoms: _293  and  _294
REMARK  130  A    between atoms: _293  and  _296
REMARK  131  A    between atoms: _296  and  _297
REMARK  132  A    between atoms: _297  and  _298
REMARK  133  A    between atoms: _301  and  _303
REMARK  134  A    between atoms: _303  and  _304
REMARK  135  A    between atoms: _303  and  _306
REMARK  136  A    between atoms: _306  and  _307
REMARK  137  A    between atoms: _313  and  _315
REMARK  138  A    between atoms: _315  and  _316
REMARK  139  A    between atoms: _315  and  _318
REMARK  140  A    between atoms: _318  and  _319
REMARK  141  A    between atoms: _322  and  _324
REMARK  142  A    between atoms: _324  and  _325
REMARK  143  A    between atoms: _324  and  _327
REMARK  144  A    between atoms: _327  and  _328
REMARK  145  A    between atoms: _333  and  _335
REMARK  146  A    between atoms: _335  and  _336
REMARK  147  A    between atoms: _335  and  _338
REMARK  148  A    between atoms: _338  and  _339
REMARK  149  A    between atoms: _339  and  _340
REMARK  150  A    between atoms: _345  and  _347
REMARK  151  A    between atoms: _347  and  _348
REMARK  152  A    between atoms: _347  and  _350
REMARK  153  A    between atoms: _350  and  _351
REMARK  154  A    between atoms: _354  and  _356
REMARK  155  A    between atoms: _356  and  _357
REMARK  156  A    between atoms: _356  and  _359
REMARK  157  A    between atoms: _359  and  _360
REMARK  158  A    between atoms: _363  and  _365
REMARK  159  A    between atoms: _365  and  _366
REMARK  160  A    between atoms: _365  and  _368
REMARK  161  A    between atoms: _368  and  _369
REMARK  162  A    between atoms: _369  and  _370
REMARK  163  A    between atoms: _370  and  _371
REMARK  164  A    between atoms: _371  and  _372
REMARK  165  A    between atoms: _376  and  _378
REMARK  166  A    between atoms: _378  and  _379
REMARK  167  A    between atoms: _378  and  _381
REMARK  168  A    between atoms: _381  and  _382
REMARK  169  A    between atoms: _382  and  _383
REMARK  170  A    between atoms: _383  and  _384
REMARK  171  A    between atoms: _384  and  _385
REMARK  172  A    between atoms: _389  and  _391
REMARK  173  A    between atoms: _391  and  _392
REMARK  174  A    between atoms: _391  and  _394
REMARK  175  A    between atoms: _394  and  _395
REMARK  176  A    between atoms: _401  and  _403
REMARK  177  A    between atoms: _403  and  _404
REMARK  178  A    between atoms: _403  and  _406
REMARK  179  A    between atoms: _406  and  _407
REMARK  180  A    between atoms: _410  and  _412
REMARK  181  A    between atoms: _412  and  _413
REMARK  182  A    between atoms: _412  and  _415
REMARK  183  A    between atoms: _415  and  _416
REMARK  184  A    between atoms: _416  and  _417
REMARK  185  A    between atoms: _417  and  _418
REMARK  186  A    between atoms: _418  and  _419
REMARK  187  A    between atoms: _424  and  _425
REMARK  188  A    between atoms: _430  and  _432
REMARK  189  A    between atoms: _432  and  _433
REMARK  190  A    between atoms: _432  and  _435
REMARK  191  A    between atoms: _435  and  _436
REMARK  192  A    between atoms: _436  and  _437
REMARK  193  A    between atoms: _442  and  _444
REMARK  194  A    between atoms: _444  and  _445
REMARK  195  A    between atoms: _444  and  _447
REMARK  196  A    between atoms: _447  and  _448
REMARK  197  A    between atoms: _453  and  _455
REMARK  198  A    between atoms: _455  and  _456
REMARK  199  A    between atoms: _455  and  _458
REMARK  200  A    between atoms: _458  and  _459
REMARK  201  A    between atoms: _462  and  _464
REMARK  202  A    between atoms: _464  and  _465
REMARK  203  A    between atoms: _464  and  _467
REMARK  204  A    between atoms: _467  and  _468
REMARK  205  A    between atoms: _471  and  _473
REMARK  206  A    between atoms: _473  and  _474
REMARK  207  A    between atoms: _473  and  _476
REMARK  208  A    between atoms: _476  and  _477
REMARK  209  A    between atoms: _480  and  _482
REMARK  210  A    between atoms: _482  and  _483
REMARK  211  A    between atoms: _482  and  _485
REMARK  212  A    between atoms: _485  and  _486
REMARK  213  A    between atoms: _489  and  _491
REMARK  214  A    between atoms: _491  and  _492
REMARK  215  A    between atoms: _495  and  _497
REMARK  216  A    between atoms: _497  and  _498
REMARK  217  A    between atoms: _497  and  _500
REMARK  218  A    between atoms: _500  and  _501
REMARK  219  A    between atoms: _504  and  _506
REMARK  220  A    between atoms: _506  and  _507
REMARK  221  A    between atoms: _506  and  _509
REMARK  222  A    between atoms: _509  and  _510
REMARK  223  A    between atoms: _516  and  _518
REMARK  224  A    between atoms: _518  and  _519
REMARK  225  A    between atoms: _521  and  _523
REMARK  226  A    between atoms: _523  and  _524
REMARK  227  A    between atoms: _523  and  _526
REMARK  228  A    between atoms: _526  and  _527
REMARK                            x       y       z     vdW  Elec       q    Type
REMARK                         _______ _______ _______ _____ _____    ______ ____
ROOT
ATOM      1  CA  LEU A   4      -9.307  14.839 -26.892  0.00  0.00    +0.149 C 
ENDROOT
BRANCH   1   4
ATOM      2  C   ALA A   3     -10.319  17.051 -26.703  0.00  0.00    +0.241 C 
ATOM      3  O   ALA A   3     -11.231  16.650 -25.978  0.00  0.00    -0.273 OA
ATOM      4  N   LEU A   4      -9.371  16.262 -27.189  0.00  0.00    -0.297 N 
ATOM      5  H   LEU A   4      -8.644  16.676 -27.807  0.00  0.00    +0.150 HD
BRANCH   2   6
ATOM      6  CA  ALA A   3     -10.231  18.518 -27.090  0.00  0.00    +0.149 C 
ATOM      7  CB  ALA A   3      -9.764  19.356 -25.898  0.00  0.00    +0.031 C 
BRANCH   6   9
ATOM      8  C   VAL A   2     -11.806  19.185 -28.812  0.00  0.00    +0.241 C 
ATOM      9  N   ALA A   3     -11.556  18.937 -27.532  0.00  0.00    -0.297 N 
ATOM     10  H   ALA A   3     -12.318  19.043 -26.832  0.00  0.00    +0.150 HD
ATOM     11  O   VAL A   2     -10.920  19.283 -29.666  0.00  0.00    -0.273 OA
BRANCH   8  12
ATOM     12  CA  VAL A   2     -13.269  19.347 -29.180  0.00  0.00    +0.148 C 
BRANCH  12  15
ATOM     13  C   VAL A   1     -14.260  20.934 -30.724  0.00  0.00    +0.238 C 
ATOM     14  O   VAL A   1     -14.913  21.461 -29.827  0.00  0.00    -0.274 OA
ATOM     15  N   VAL A   2     -13.418  19.931 -30.507  0.00  0.00    -0.297 N 
ATOM     16  H   VAL A   2     -12.855  19.556 -31.297  0.00  0.00    +0.150 HD
BRANCH  13  17
ATOM     17  CA  VAL A   1     -14.413  21.403 -32.169  0.00  0.00    +0.145 C 
BRANCH  17  18
ATOM     18  CB  VAL A   1     -13.715  22.770 -32.355  0.00  0.00    +0.025 C 
ATOM     19  CG2 VAL A   1     -12.304  22.731 -31.809  0.00  0.00    +0.002 C 
ATOM     20  CG1 VAL A   1     -13.711  23.165 -33.827  0.00  0.00    +0.002 C 
ENDBRANCH  17  18
BRANCH  17  21
ATOM     21  N   VAL A   1     -15.835  21.500 -32.450  0.00  0.00    -0.238 NA
ATOM     22  H   VAL A   1     -16.333  22.391 -32.249  0.00  0.00    +0.142 HD
ENDBRANCH  17  21
ENDBRANCH  13  17
ENDBRANCH  12  15
BRANCH  12  23
ATOM     23  CB  VAL A   2     -13.916  17.947 -29.104  0.00  0.00    +0.027 C 
ATOM     24  CG2 VAL A   2     -15.387  18.014 -29.460  0.00  0.00    +0.002 C 
ATOM     25  CG1 VAL A   2     -13.172  16.974 -30.030  0.00  0.00    +0.002 C 
ENDBRANCH  12  23
ENDBRANCH   8  12
ENDBRANCH   6   9
ENDBRANCH   2   6
ENDBRANCH   1   4
BRANCH   1  26
ATOM     26  C   LEU A   4      -8.158  14.590 -25.940  0.00  0.00    +0.241 C 
ATOM     27  N   LYS A   5      -8.462  13.965 -24.811  0.00  0.00    -0.297 N 
ATOM     28  H   LYS A   5      -9.458  13.763 -24.589  0.00  0.00    +0.150 HD
ATOM     29  O   LEU A   4      -7.013  14.957 -26.223  0.00  0.00    -0.273 OA
BRANCH  27  30
ATOM     30  CA  LYS A   5      -7.426  13.560 -23.883  0.00  0.00    +0.149 C 
BRANCH  30  31
ATOM     31  C   LYS A   5      -7.245  12.053 -24.020  0.00  0.00    +0.241 C 
ATOM     32  O   LYS A   5      -8.133  11.276 -23.663  0.00  0.00    -0.273 OA
ATOM     33  N   LYS A   6      -6.108  11.647 -24.577  0.00  0.00    -0.298 N 
ATOM     34  H   LYS A   6      -5.407  12.356 -24.873  0.00  0.00    +0.150 HD
BRANCH  33  35
ATOM     35  CA  LYS A   6      -5.821  10.233 -24.783  0.00  0.00    +0.137 C 
BRANCH  35  36
ATOM     36  C   LYS A   6      -5.085   9.659 -23.587  0.00  0.00    +0.227 C 
ATOM     37  O   LYS A   6      -4.025  10.151 -23.205  0.00  0.00    -0.286 OA
ENDBRANCH  35  36
BRANCH  35  38
ATOM     38  CB  LYS A   6      -4.981  10.014 -26.045  0.00  0.00    +0.028 C 
BRANCH  38  39
ATOM     39  CG  LYS A   6      -4.583   8.558 -26.251  0.00  0.00    -0.000 C 
BRANCH  39  40
ATOM     40  CD  LYS A   6      -3.377   8.405 -27.171  0.00  0.00    -0.024 C 
BRANCH  40  41
ATOM     41  CE  LYS A   6      -3.738   8.656 -28.624  0.00  0.00    -0.086 C 
BRANCH  41  42
ATOM     42  NZ  LYS A   6      -2.664   8.188 -29.548  0.00  0.00    +0.380 N 
ATOM     43  HZ1 LYS A   6      -1.781   8.696 -29.337  0.00  0.00    -0.089 HD
ATOM     44  HZ2 LYS A   6      -2.517   7.167 -29.418  0.00  0.00    -0.089 HD
ATOM     45  HZ3 LYS A   6      -2.947   8.377 -30.531  0.00  0.00    -0.089 HD
ENDBRANCH  41  42
ENDBRANCH  40  41
ENDBRANCH  39  40
ENDBRANCH  38  39
ENDBRANCH  35  38
ENDBRANCH  33  35
ENDBRANCH  30  31
BRANCH  30  46
ATOM     46  CB  LYS A   5      -7.819  13.961 -22.464  0.00  0.00    +0.029 C 
BRANCH  46  47
ATOM     47  CG  LYS A   5      -6.732  13.823 -21.413  0.00  0.00    +0.000 C 
BRANCH  47  48
ATOM     48  CD  LYS A   5      -7.275  14.351 -20.096  0.00  0.00    -0.024 C 
BRANCH  48  49
ATOM     49  CE  LYS A   5      -6.262  14.285 -18.986  0.00  0.00    -0.086 C 
BRANCH  49  50
ATOM     50  NZ  LYS A   5      -6.754  14.985 -17.773  0.00  0.00    +0.380 N 
ATOM     51  HZ1 LYS A   5      -6.036  14.924 -17.024  0.00  0.00    -0.089 HD
ATOM     52  HZ2 LYS A   5      -7.634  14.536 -17.448  0.00  0.00    -0.089 HD
ATOM     53  HZ3 LYS A   5      -6.936  15.984 -18.000  0.00  0.00    -0.089 HD
ENDBRANCH  49  50
ENDBRANCH  48  49
ENDBRANCH  47  48
ENDBRANCH  46  47
ENDBRANCH  30  46
ENDBRANCH  27  30
ENDBRANCH   1  26
BRANCH   1  54
ATOM     54  CB  LEU A   4      -9.059  14.028 -28.171  0.00  0.00    +0.029 C 
BRANCH  54  55
ATOM     55  CG  LEU A   4     -10.119  14.125 -29.263  0.00  0.00    +0.002 C 
ATOM     56  CD2 LEU A   4     -11.471  13.632 -28.743  0.00  0.00    +0.000 C 
ATOM     57  CD1 LEU A   4      -9.685  13.342 -30.498  0.00  0.00    +0.000 C 
ENDBRANCH  54  55
ENDBRANCH   1  54
TORSDOF 26
REMARK  Name = ../refined-set-2016/4bco/4bco_pocket.pdb
REMARK  228 active torsions:
REMARK  status: ('A' for Active; 'I' for Inactive)
REMARK    1  A    between atoms: _1  and  _3
REMARK    2  A    between atoms: _3  and  _4
REMARK    3  A    between atoms: _3  and  _6
REMARK    4  A    between atoms: _9  and  _11
REMARK    5  A    between atoms: _11  and  _12
REMARK    6  A    between atoms: _11  and  _14
REMARK    7  A    between atoms: _14  and  _15
REMARK    8  A    between atoms: _15  and  _16
REMARK    9  A    between atoms: _19  and  _21
REMARK   10  A    between atoms: _21  and  _22
REMARK   11  A    between atoms: _21  and  _24
REMARK   12  A    between atoms: _24  and  _25
REMARK   13  A    between atoms: _25  and  _26
REMARK   14  A    between atoms: _26  and  _27
REMARK   15  A    between atoms: _27  and  _28
REMARK   16  A    between atoms: _32  and  _34
REMARK   17  A    between atoms: _34  and  _35
REMARK   18  A    between atoms: _34  and  _37
REMARK   19  A    between atoms: _37  and  _38
REMARK   20  A    between atoms: _41  and  _43
REMARK   21  A    between atoms: _43  and  _44
REMARK   22  A    between atoms: _46  and  _48
REMARK   23  A    between atoms: _48  and  _49
REMARK   24  A    between atoms: _48  and  _51
REMARK   25  A    between atoms: _51  and  _52
REMARK   26  A    between atoms: _52  and  _53
REMARK   27  A    between atoms: _56  and  _58
REMARK   28  A    between atoms: _58  and  _59
REMARK   29  A    between atoms: _61  and  _63
REMARK   30  A    between atoms: _63  and  _64
REMARK   31  A    between atoms: _63  and  _66
REMARK   32  A    between atoms: _66  and  _67
REMARK   33  A    between atoms: _70  and  _72
REMARK   34  A    between atoms: _72  and  _73
REMARK   35  A    between atoms: _72  and  _75
REMARK   36  A    between atoms: _75  and  _76
REMARK   37  A    between atoms: _81  and  _82
REMARK   38  A    between atoms: _84  and  _86
REMARK   39  A    between atoms: _86  and  _87
REMARK   40  A    between atoms: _89  and  _91
REMARK   41  A    between atoms: _91  and  _92
REMARK   42  A    between atoms: _91  and  _94
REMARK   43  A    between atoms: _97  and  _99
REMARK   44  A    between atoms: _99  and  _100
REMARK   45  A    between atoms: _99  and  _102
REMARK   46  A    between atoms: _105  and  _107
REMARK   47  A    between atoms: _107  and  _108
REMARK   48  A    between atoms: _107  and  _110
REMARK   49  A    between atoms: _110  and  _111
REMARK   50  A    between atoms: _116  and  _117
REMARK   51  A    between atoms: _119  and  _121
REMARK   52  A    between atoms: _121  and  _122
REMARK   53  A    between atoms: _121  and  _124
REMARK   54  A    between atoms: _124  and  _125
REMARK   55  A    between atoms: _125  and  _126
REMARK   56  A    between atoms: _126  and  _127
REMARK   57  A    between atoms: _127  and  _128
REMARK   58  A    between atoms: _132  and  _134
REMARK   59  A    between atoms: _134  and  _135
REMARK   60  A    between atoms: _138  and  _140
REMARK   61  A    between atoms: _140  and  _141
REMARK   62  A    between atoms: _140  and  _143
REMARK   63  A    between atoms: _146  and  _148
REMARK   64  A    between atoms: _148  and  _149
REMARK   65  A    between atoms: _148  and  _151
REMARK   66  A    between atoms: _154  and  _156
REMARK   67  A    between atoms: _156  and  _157
REMARK   68  A    between atoms: _160  and  _162
REMARK   69  A    between atoms: _162  and  _163
REMARK   70  A    between atoms: _162  and  _165
REMARK   71  A    between atoms: _165  and  _166
REMARK   72  A    between atoms: _169  and  _171
REMARK   73  A    between atoms: _171  and  _172
REMARK   74  A    between atoms: _171  and  _174
REMARK   75  A    between atoms: _174  and  _175
REMARK   76  A    between atoms: _175  and  _176
REMARK   77  A    between atoms: _176  and  _177
REMARK   78  A    between atoms: _177  and  _178
REMARK   79  A    between atoms: _182  and  _184
REMARK   80  A    between atoms: _184  and  _185
REMARK   81  A    between atoms: _184  and  _187
REMARK   82  A    between atoms: _187  and  _188
REMARK   83  A    between atoms: _188  and  _189
REMARK   84  A    between atoms: _189  and  _190
REMARK   85  A    between atoms: _190  and  _191
REMARK   86  A    between atoms: _195  and  _197
REMARK   87  A    between atoms: _197  and  _198
REMARK   88  A    between atoms: _197  and  _200
REMARK   89  A    between atoms: _200  and  _201
REMARK   90  A    between atoms: _201  and  _202
REMARK   91  A    between atoms: _205  and  _207
REMARK   92  A    between atoms: _207  and  _208
REMARK   93  A    between atoms: _207  and  _210
REMARK   94  A    between atoms: _210  and  _211
REMARK   95  A    between atoms: _214  and  _216
REMARK   96  A    between atoms: _216  and  _217
REMARK   97  A    between atoms: _216  and  _219
REMARK   98  A    between atoms: _219  and  _220
REMARK   99  A    between atoms: _223  and  _225
REMARK  100  A    between atoms: _225  and  _226
REMARK  101  A    between atoms: _225  and  _228
REMARK  102  A    between atoms: _231  and  _233
REMARK  103  A    between atoms: _233  and  _234
REMARK  104  A    between atoms: _233  and  _236
REMARK  105  A    between atoms: _236  and  _237
REMARK  106  A    between atoms: _237  and  _238
REMARK  107  A    between atoms: _238  and  _239
REMARK  108  A    between atoms: _239  and  _240
REMARK  109  A    between atoms: _244  and  _246
REMARK  110  A    between atoms: _246  and  _247
REMARK  111  A    between atoms: _246  and  _249
REMARK  112  A    between atoms: _249  and  _250
REMARK  113  A    between atoms: _253  and  _255
REMARK  114  A    between atoms: _255  and  _256
REMARK  115  A    between atoms: _255  and  _258
REMARK  116  A    between atoms: _258  and  _259
REMARK  117  A    between atoms: _262  and  _264
REMARK  118  A    between atoms: _264  and  _265
REMARK  119  A    between atoms: _264  and  _267
REMARK  120  A    between atoms: _267  and  _268
REMARK  121  A    between atoms: _271  and  _273
REMARK  122  A    between atoms: _273  and  _274
REMARK  123  A    between atoms: _273  and  _276
REMARK  124  A    between atoms: _279  and  _281
REMARK  125  A    between atoms: _281  and  _282
REMARK  126  A    between atoms: _281  and  _284
REMARK  127  A    between atoms: _284  and  _285
REMARK  128  A    between atoms: _291  and  _293
REMARK  129  A    between atoms: _293  and  _294
REMARK  130  A    between atoms: _293  and  _296
REMARK  131  A    between atoms: _296  and  _297
REMARK  132  A    between atoms: _297  and  _298
REMARK  133  A    between atoms: _301  and  _303
REMARK  134  A    between atoms: _303  and  _304
REMARK  135  A    between atoms: _303  and  _306
REMARK  136  A    between atoms: _306  and  _307
REMARK  137  A    between atoms: _313  and  _315
REMARK  138  A    between atoms: _315  and  _316
REMARK  139  A    between atoms: _315  and  _318
REMARK  140  A    between atoms: _318  and  _319
REMARK  141  A    between atoms: _322  and  _324
REMARK  142  A    between atoms: _324  and  _325
REMARK  143  A    between atoms: _324  and  _327
REMARK  144  A    between atoms: _327  and  _328
REMARK  145  A    between atoms: _333  and  _335
REMARK  146  A    between atoms: _335  and  _336
REMARK  147  A    between atoms: _335  and  _338
REMARK  148  A    between atoms: _338  and  _339
REMARK  149  A    between atoms: _339  and  _340
REMARK  150  A    between atoms: _345  and  _347
REMARK  151  A    between atoms: _347  and  _348
REMARK  152  A    between atoms: _347  and  _350
REMARK  153  A    between atoms: _350  and  _351
REMARK  154  A    between atoms: _354  and  _356
REMARK  155  A    between atoms: _356  and  _357
REMARK  156  A    between atoms: _356  and  _359
REMARK  157  A    between atoms: _359  and  _360
REMARK  158  A    between atoms: _363  and  _365
REMARK  159  A    between atoms: _365  and  _366
REMARK  160  A    between atoms: _365  and  _368
REMARK  161  A    between atoms: _368  and  _369
REMARK  162  A    between atoms: _369  and  _370
REMARK  163  A    between atoms: _370  and  _371
REMARK  164  A    between atoms: _371  and  _372
REMARK  165  A    between atoms: _376  and  _378
REMARK  166  A    between atoms: _378  and  _379
REMARK  167  A    between atoms: _378  and  _381
REMARK  168  A    between atoms: _381  and  _382
REMARK  169  A    between atoms: _382  and  _383
REMARK  170  A    between atoms: _383  and  _384
REMARK  171  A    between atoms: _384  and  _385
REMARK  172  A    between atoms: _389  and  _391
REMARK  173  A    between atoms: _391  and  _392
REMARK  174  A    between atoms: _391  and  _394
REMARK  175  A    between atoms: _394  and  _395
REMARK  176  A    between atoms: _401  and  _403
REMARK  177  A    between atoms: _403  and  _404
REMARK  178  A    between atoms: _403  and  _406
REMARK  179  A    between atoms: _406  and  _407
REMARK  180  A    between atoms: _410  and  _412
REMARK  181  A    between atoms: _412  and  _413
REMARK  182  A    between atoms: _412  and  _415
REMARK  183  A    between atoms: _415  and  _416
REMARK  184  A    between atoms: _416  and  _417
REMARK  185  A    between atoms: _417  and  _418
REMARK  186  A    between atoms: _418  and  _419
REMARK  187  A    between atoms: _424  and  _425
REMARK  188  A    between atoms: _430  and  _432
REMARK  189  A    between atoms: _432  and  _433
REMARK  190  A    between atoms: _432  and  _435
REMARK  191  A    between atoms: _435  and  _436
REMARK  192  A    between atoms: _436  and  _437
REMARK  193  A    between atoms: _442  and  _444
REMARK  194  A    between atoms: _444  and  _445
REMARK  195  A    between atoms: _444  and  _447
REMARK  196  A    between atoms: _447  and  _448
REMARK  197  A    between atoms: _453  and  _455
REMARK  198  A    between atoms: _455  and  _456
REMARK  199  A    between atoms: _455  and  _458
REMARK  200  A    between atoms: _458  and  _459
REMARK  201  A    between atoms: _462  and  _464
REMARK  202  A    between atoms: _464  and  _465
REMARK  203  A    between atoms: _464  and  _467
REMARK  204  A    between atoms: _467  and  _468
REMARK  205  A    between atoms: _471  and  _473
REMARK  206  A    between atoms: _473  and  _474
REMARK  207  A    between atoms: _473  and  _476
REMARK  208  A    between atoms: _476  and  _477
REMARK  209  A    between atoms: _480  and  _482
REMARK  210  A    between atoms: _482  and  _483
REMARK  211  A    between atoms: _482  and  _485
REMARK  212  A    between atoms: _485  and  _486
REMARK  213  A    between atoms: _489  and  _491
REMARK  214  A    between atoms: _491  and  _492
REMARK  215  A    between atoms: _495  and  _497
REMARK  216  A    between atoms: _497  and  _498
REMARK  217  A    between atoms: _497  and  _500
REMARK  218  A    between atoms: _500  and  _501
REMARK  219  A    between atoms: _504  and  _506
REMARK  220  A    between atoms: _506  and  _507
REMARK  221  A    between atoms: _506  and  _509
REMARK  222  A    between atoms: _509  and  _510
REMARK  223  A    between atoms: _516  and  _518
REMARK  224  A    between atoms: _518  and  _519
REMARK  225  A    between atoms: _521  and  _523
REMARK  226  A    between atoms: _523  and  _524
REMARK  227  A    between atoms: _523  and  _526
REMARK  228  A    between atoms: _526  and  _527
REMARK                            x       y       z     vdW  Elec       q    Type
REMARK                         _______ _______ _______ _____ _____    ______ ____
ROOT
ATOM      1  CA  GLU A   1     -11.654  12.744 -13.442  0.00  0.00    +0.134 C 
ENDROOT
BRANCH   1   2
ATOM      2  N   GLU A   1     -11.349  11.637 -12.543  0.00  0.00    -0.239 NA
ATOM      3  H   GLU A   1     -10.473  11.089 -12.663  0.00  0.00    +0.142 HD
ENDBRANCH   1   2
BRANCH   1   4
ATOM      4  C   GLU A   1     -12.986  12.528 -14.138  0.00  0.00    +0.224 C 
ATOM      5  O   GLU A   1     -13.827  13.428 -14.209  0.00  0.00    -0.287 OA
ENDBRANCH   1   4
BRANCH   1   6
ATOM      6  CB  GLU A   1     -10.555  12.976 -14.485  0.00  0.00    +0.037 C 
BRANCH   6   7
ATOM      7  CG  GLU A   1     -10.955  14.062 -15.477  0.00  0.00    +0.116 C 
BRANCH   7   8
ATOM      8  CD  GLU A   1      -9.792  14.669 -16.232  0.00  0.00    +0.365 C 
ATOM      9  OE2 GLU A   1      -9.815  15.908 -16.453  0.00  0.00    -0.246 OA
ATOM     10  OE1 GLU A   1      -8.870  13.919 -16.602  0.00  0.00    -0.246 OA
ENDBRANCH   7   8
ENDBRANCH   6   7
ENDBRANCH   1   6
TORSDOF 5
REMARK  Name = ../refined-set-2016/4bco/4bco_pocket.pdb
REMARK  228 active torsions:
REMARK  status: ('A' for Active; 'I' for Inactive)
REMARK    1  A    between atoms: _1  and  _3
REMARK    2  A    between atoms: _3  and  _4
REMARK    3  A    between atoms: _3  and  _6
REMARK    4  A    between atoms: _9  and  _11
REMARK    5  A    between atoms: _11  and  _12
REMARK    6  A    between atoms: _11  and  _14
REMARK    7  A    between atoms: _14  and  _15
REMARK    8  A    between atoms: _15  and  _16
REMARK    9  A    between atoms: _19  and  _21
REMARK   10  A    between atoms: _21  and  _22
REMARK   11  A    between atoms: _21  and  _24
REMARK   12  A    between atoms: _24  and  _25
REMARK   13  A    between atoms: _25  and  _26
REMARK   14  A    between atoms: _26  and  _27
REMARK   15  A    between atoms: _27  and  _28
REMARK   16  A    between atoms: _32  and  _34
REMARK   17  A    between atoms: _34  and  _35
REMARK   18  A    between atoms: _34  and  _37
REMARK   19  A    between atoms: _37  and  _38
REMARK   20  A    between atoms: _41  and  _43
REMARK   21  A    between atoms: _43  and  _44
REMARK   22  A    between atoms: _46  and  _48
REMARK   23  A    between atoms: _48  and  _49
REMARK   24  A    between atoms: _48  and  _51
REMARK   25  A    between atoms: _51  and  _52
REMARK   26  A    between atoms: _52  and  _53
REMARK   27  A    between atoms: _56  and  _58
REMARK   28  A    between atoms: _58  and  _59
REMARK   29  A    between atoms: _61  and  _63
REMARK   30  A    between atoms: _63  and  _64
REMARK   31  A    between atoms: _63  and  _66
REMARK   32  A    between atoms: _66  and  _67
REMARK   33  A    between atoms: _70  and  _72
REMARK   34  A    between atoms: _72  and  _73
REMARK   35  A    between atoms: _72  and  _75
REMARK   36  A    between atoms: _75  and  _76
REMARK   37  A    between atoms: _81  and  _82
REMARK   38  A    between atoms: _84  and  _86
REMARK   39  A    between atoms: _86  and  _87
REMARK   40  A    between atoms: _89  and  _91
REMARK   41  A    between atoms: _91  and  _92
REMARK   42  A    between atoms: _91  and  _94
REMARK   43  A    between atoms: _97  and  _99
REMARK   44  A    between atoms: _99  and  _100
REMARK   45  A    between atoms: _99  and  _102
REMARK   46  A    between atoms: _105  and  _107
REMARK   47  A    between atoms: _107  and  _108
REMARK   48  A    between atoms: _107  and  _110
REMARK   49  A    between atoms: _110  and  _111
REMARK   50  A    between atoms: _116  and  _117
REMARK   51  A    between atoms: _119  and  _121
REMARK   52  A    between atoms: _121  and  _122
REMARK   53  A    between atoms: _121  and  _124
REMARK   54  A    between atoms: _124  and  _125
REMARK   55  A    between atoms: _125  and  _126
REMARK   56  A    between atoms: _126  and  _127
REMARK   57  A    between atoms: _127  and  _128
REMARK   58  A    between atoms: _132  and  _134
REMARK   59  A    between atoms: _134  and  _135
REMARK   60  A    between atoms: _138  and  _140
REMARK   61  A    between atoms: _140  and  _141
REMARK   62  A    between atoms: _140  and  _143
REMARK   63  A    between atoms: _146  and  _148
REMARK   64  A    between atoms: _148  and  _149
REMARK   65  A    between atoms: _148  and  _151
REMARK   66  A    between atoms: _154  and  _156
REMARK   67  A    between atoms: _156  and  _157
REMARK   68  A    between atoms: _160  and  _162
REMARK   69  A    between atoms: _162  and  _163
REMARK   70  A    between atoms: _162  and  _165
REMARK   71  A    between atoms: _165  and  _166
REMARK   72  A    between atoms: _169  and  _171
REMARK   73  A    between atoms: _171  and  _172
REMARK   74  A    between atoms: _171  and  _174
REMARK   75  A    between atoms: _174  and  _175
REMARK   76  A    between atoms: _175  and  _176
REMARK   77  A    between atoms: _176  and  _177
REMARK   78  A    between atoms: _177  and  _178
REMARK   79  A    between atoms: _182  and  _184
REMARK   80  A    between atoms: _184  and  _185
REMARK   81  A    between atoms: _184  and  _187
REMARK   82  A    between atoms: _187  and  _188
REMARK   83  A    between atoms: _188  and  _189
REMARK   84  A    between atoms: _189  and  _190
REMARK   85  A    between atoms: _190  and  _191
REMARK   86  A    between atoms: _195  and  _197
REMARK   87  A    between atoms: _197  and  _198
REMARK   88  A    between atoms: _197  and  _200
REMARK   89  A    between atoms: _200  and  _201
REMARK   90  A    between atoms: _201  and  _202
REMARK   91  A    between atoms: _205  and  _207
REMARK   92  A    between atoms: _207  and  _208
REMARK   93  A    between atoms: _207  and  _210
REMARK   94  A    between atoms: _210  and  _211
REMARK   95  A    between atoms: _214  and  _216
REMARK   96  A    between atoms: _216  and  _217
REMARK   97  A    between atoms: _216  and  _219
REMARK   98  A    between atoms: _219  and  _220
REMARK   99  A    between atoms: _223  and  _225
REMARK  100  A    between atoms: _225  and  _226
REMARK  101  A    between atoms: _225  and  _228
REMARK  102  A    between atoms: _231  and  _233
REMARK  103  A    between atoms: _233  and  _234
REMARK  104  A    between atoms: _233  and  _236
REMARK  105  A    between atoms: _236  and  _237
REMARK  106  A    between atoms: _237  and  _238
REMARK  107  A    between atoms: _238  and  _239
REMARK  108  A    between atoms: _239  and  _240
REMARK  109  A    between atoms: _244  and  _246
REMARK  110  A    between atoms: _246  and  _247
REMARK  111  A    between atoms: _246  and  _249
REMARK  112  A    between atoms: _249  and  _250
REMARK  113  A    between atoms: _253  and  _255
REMARK  114  A    between atoms: _255  and  _256
REMARK  115  A    between atoms: _255  and  _258
REMARK  116  A    between atoms: _258  and  _259
REMARK  117  A    between atoms: _262  and  _264
REMARK  118  A    between atoms: _264  and  _265
REMARK  119  A    between atoms: _264  and  _267
REMARK  120  A    between atoms: _267  and  _268
REMARK  121  A    between atoms: _271  and  _273
REMARK  122  A    between atoms: _273  and  _274
REMARK  123  A    between atoms: _273  and  _276
REMARK  124  A    between atoms: _279  and  _281
REMARK  125  A    between atoms: _281  and  _282
REMARK  126  A    between atoms: _281  and  _284
REMARK  127  A    between atoms: _284  and  _285
REMARK  128  A    between atoms: _291  and  _293
REMARK  129  A    between atoms: _293  and  _294
REMARK  130  A    between atoms: _293  and  _296
REMARK  131  A    between atoms: _296  and  _297
REMARK  132  A    between atoms: _297  and  _298
REMARK  133  A    between atoms: _301  and  _303
REMARK  134  A    between atoms: _303  and  _304
REMARK  135  A    between atoms: _303  and  _306
REMARK  136  A    between atoms: _306  and  _307
REMARK  137  A    between atoms: _313  and  _315
REMARK  138  A    between atoms: _315  and  _316
REMARK  139  A    between atoms: _315  and  _318
REMARK  140  A    between atoms: _318  and  _319
REMARK  141  A    between atoms: _322  and  _324
REMARK  142  A    between atoms: _324  and  _325
REMARK  143  A    between atoms: _324  and  _327
REMARK  144  A    between atoms: _327  and  _328
REMARK  145  A    between atoms: _333  and  _335
REMARK  146  A    between atoms: _335  and  _336
REMARK  147  A    between atoms: _335  and  _338
REMARK  148  A    between atoms: _338  and  _339
REMARK  149  A    between atoms: _339  and  _340
REMARK  150  A    between atoms: _345  and  _347
REMARK  151  A    between atoms: _347  and  _348
REMARK  152  A    between atoms: _347  and  _350
REMARK  153  A    between atoms: _350  and  _351
REMARK  154  A    between atoms: _354  and  _356
REMARK  155  A    between atoms: _356  and  _357
REMARK  156  A    between atoms: _356  and  _359
REMARK  157  A    between atoms: _359  and  _360
REMARK  158  A    between atoms: _363  and  _365
REMARK  159  A    between atoms: _365  and  _366
REMARK  160  A    between atoms: _365  and  _368
REMARK  161  A    between atoms: _368  and  _369
REMARK  162  A    between atoms: _369  and  _370
REMARK  163  A    between atoms: _370  and  _371
REMARK  164  A    between atoms: _371  and  _372
REMARK  165  A    between atoms: _376  and  _378
REMARK  166  A    between atoms: _378  and  _379
REMARK  167  A    between atoms: _378  and  _381
REMARK  168  A    between atoms: _381  and  _382
REMARK  169  A    between atoms: _382  and  _383
REMARK  170  A    between atoms: _383  and  _384
REMARK  171  A    between atoms: _384  and  _385
REMARK  172  A    between atoms: _389  and  _391
REMARK  173  A    between atoms: _391  and  _392
REMARK  174  A    between atoms: _391  and  _394
REMARK  175  A    between atoms: _394  and  _395
REMARK  176  A    between atoms: _401  and  _403
REMARK  177  A    between atoms: _403  and  _404
REMARK  178  A    between atoms: _403  and  _406
REMARK  179  A    between atoms: _406  and  _407
REMARK  180  A    between atoms: _410  and  _412
REMARK  181  A    between atoms: _412  and  _413
REMARK  182  A    between atoms: _412  and  _415
REMARK  183  A    between atoms: _415  and  _416
REMARK  184  A    between atoms: _416  and  _417
REMARK  185  A    between atoms: _417  and  _418
REMARK  186  A    between atoms: _418  and  _419
REMARK  187  A    between atoms: _424  and  _425
REMARK  188  A    between atoms: _430  and  _432
REMARK  189  A    between atoms: _432  and  _433
REMARK  190  A    between atoms: _432  and  _435
REMARK  191  A    between atoms: _435  and  _436
REMARK  192  A    between atoms: _436  and  _437
REMARK  193  A    between atoms: _442  and  _444
REMARK  194  A    between atoms: _444  and  _445
REMARK  195  A    between atoms: _444  and  _447
REMARK  196  A    between atoms: _447  and  _448
REMARK  197  A    between atoms: _453  and  _455
REMARK  198  A    between atoms: _455  and  _456
REMARK  199  A    between atoms: _455  and  _458
REMARK  200  A    between atoms: _458  and  _459
REMARK  201  A    between atoms: _462  and  _464
REMARK  202  A    between atoms: _464  and  _465
REMARK  203  A    between atoms: _464  and  _467
REMARK  204  A    between atoms: _467  and  _468
REMARK  205  A    between atoms: _471  and  _473
REMARK  206  A    between atoms: _473  and  _474
REMARK  207  A    between atoms: _473  and  _476
REMARK  208  A    between atoms: _476  and  _477
REMARK  209  A    between atoms: _480  and  _482
REMARK  210  A    between atoms: _482  and  _483
REMARK  211  A    between atoms: _482  and  _485
REMARK  212  A    between atoms: _485  and  _486
REMARK  213  A    between atoms: _489  and  _491
REMARK  214  A    between atoms: _491  and  _492
REMARK  215  A    between atoms: _495  and  _497
REMARK  216  A    between atoms: _497  and  _498
REMARK  217  A    between atoms: _497  and  _500
REMARK  218  A    between atoms: _500  and  _501
REMARK  219  A    between atoms: _504  and  _506
REMARK  220  A    between atoms: _506  and  _507
REMARK  221  A    between atoms: _506  and  _509
REMARK  222  A    between atoms: _509  and  _510
REMARK  223  A    between atoms: _516  and  _518
REMARK  224  A    between atoms: _518  and  _519
REMARK  225  A    between atoms: _521  and  _523
REMARK  226  A    between atoms: _523  and  _524
REMARK  227  A    between atoms: _523  and  _526
REMARK  228  A    between atoms: _526  and  _527
REMARK                            x       y       z     vdW  Elec       q    Type
REMARK                         _______ _______ _______ _____ _____    ______ ____
ROOT
ATOM      1  CA  LEU A   1     -16.664  15.598 -14.196  0.00  0.00    +0.133 C 
ENDROOT
BRANCH   1   2
ATOM      2  N   LEU A   1     -16.297  14.629 -13.161  0.00  0.00    -0.239 NA
ATOM      3  H   LEU A   1     -15.507  13.974 -13.330  0.00  0.00    +0.142 HD
ENDBRANCH   1   2
BRANCH   1   4
ATOM      4  C   LEU A   1     -18.040  15.321 -14.807  0.00  0.00    +0.224 C 
ATOM      5  O   LEU A   1     -18.735  16.249 -15.220  0.00  0.00    -0.287 OA
ENDBRANCH   1   4
BRANCH   1   6
ATOM      6  CB  LEU A   1     -15.587  15.665 -15.284  0.00  0.00    +0.025 C 
BRANCH   6   7
ATOM      7  CG  LEU A   1     -15.100  17.046 -15.731  0.00  0.00    +0.002 C 
ATOM      8  CD2 LEU A   1     -15.258  18.111 -14.636  0.00  0.00    +0.000 C 
ATOM      9  CD1 LEU A   1     -13.662  16.961 -16.200  0.00  0.00    +0.000 C 
ENDBRANCH   6   7
ENDBRANCH   1   6
TORSDOF 4
REMARK  Name = ../refined-set-2016/4bco/4bco_pocket.pdb
REMARK  228 active torsions:
REMARK  status: ('A' for Active; 'I' for Inactive)
REMARK    1  A    between atoms: _1  and  _3
REMARK    2  A    between atoms: _3  and  _4
REMARK    3  A    between atoms: _3  and  _6
REMARK    4  A    between atoms: _9  and  _11
REMARK    5  A    between atoms: _11  and  _12
REMARK    6  A    between atoms: _11  and  _14
REMARK    7  A    between atoms: _14  and  _15
REMARK    8  A    between atoms: _15  and  _16
REMARK    9  A    between atoms: _19  and  _21
REMARK   10  A    between atoms: _21  and  _22
REMARK   11  A    between atoms: _21  and  _24
REMARK   12  A    between atoms: _24  and  _25
REMARK   13  A    between atoms: _25  and  _26
REMARK   14  A    between atoms: _26  and  _27
REMARK   15  A    between atoms: _27  and  _28
REMARK   16  A    between atoms: _32  and  _34
REMARK   17  A    between atoms: _34  and  _35
REMARK   18  A    between atoms: _34  and  _37
REMARK   19  A    between atoms: _37  and  _38
REMARK   20  A    between atoms: _41  and  _43
REMARK   21  A    between atoms: _43  and  _44
REMARK   22  A    between atoms: _46  and  _48
REMARK   23  A    between atoms: _48  and  _49
REMARK   24  A    between atoms: _48  and  _51
REMARK   25  A    between atoms: _51  and  _52
REMARK   26  A    between atoms: _52  and  _53
REMARK   27  A    between atoms: _56  and  _58
REMARK   28  A    between atoms: _58  and  _59
REMARK   29  A    between atoms: _61  and  _63
REMARK   30  A    between atoms: _63  and  _64
REMARK   31  A    between atoms: _63  and  _66
REMARK   32  A    between atoms: _66  and  _67
REMARK   33  A    between atoms: _70  and  _72
REMARK   34  A    between atoms: _72  and  _73
REMARK   35  A    between atoms: _72  and  _75
REMARK   36  A    between atoms: _75  and  _76
REMARK   37  A    between atoms: _81  and  _82
REMARK   38  A    between atoms: _84  and  _86
REMARK   39  A    between atoms: _86  and  _87
REMARK   40  A    between atoms: _89  and  _91
REMARK   41  A    between atoms: _91  and  _92
REMARK   42  A    between atoms: _91  and  _94
REMARK   43  A    between atoms: _97  and  _99
REMARK   44  A    between atoms: _99  and  _100
REMARK   45  A    between atoms: _99  and  _102
REMARK   46  A    between atoms: _105  and  _107
REMARK   47  A    between atoms: _107  and  _108
REMARK   48  A    between atoms: _107  and  _110
REMARK   49  A    between atoms: _110  and  _111
REMARK   50  A    between atoms: _116  and  _117
REMARK   51  A    between atoms: _119  and  _121
REMARK   52  A    between atoms: _121  and  _122
REMARK   53  A    between atoms: _121  and  _124
REMARK   54  A    between atoms: _124  and  _125
REMARK   55  A    between atoms: _125  and  _126
REMARK   56  A    between atoms: _126  and  _127
REMARK   57  A    between atoms: _127  and  _128
REMARK   58  A    between atoms: _132  and  _134
REMARK   59  A    between atoms: _134  and  _135
REMARK   60  A    between atoms: _138  and  _140
REMARK   61  A    between atoms: _140  and  _141
REMARK   62  A    between atoms: _140  and  _143
REMARK   63  A    between atoms: _146  and  _148
REMARK   64  A    between atoms: _148  and  _149
REMARK   65  A    between atoms: _148  and  _151
REMARK   66  A    between atoms: _154  and  _156
REMARK   67  A    between atoms: _156  and  _157
REMARK   68  A    between atoms: _160  and  _162
REMARK   69  A    between atoms: _162  and  _163
REMARK   70  A    between atoms: _162  and  _165
REMARK   71  A    between atoms: _165  and  _166
REMARK   72  A    between atoms: _169  and  _171
REMARK   73  A    between atoms: _171  and  _172
REMARK   74  A    between atoms: _171  and  _174
REMARK   75  A    between atoms: _174  and  _175
REMARK   76  A    between atoms: _175  and  _176
REMARK   77  A    between atoms: _176  and  _177
REMARK   78  A    between atoms: _177  and  _178
REMARK   79  A    between atoms: _182  and  _184
REMARK   80  A    between atoms: _184  and  _185
REMARK   81  A    between atoms: _184  and  _187
REMARK   82  A    between atoms: _187  and  _188
REMARK   83  A    between atoms: _188  and  _189
REMARK   84  A    between atoms: _189  and  _190
REMARK   85  A    between atoms: _190  and  _191
REMARK   86  A    between atoms: _195  and  _197
REMARK   87  A    between atoms: _197  and  _198
REMARK   88  A    between atoms: _197  and  _200
REMARK   89  A    between atoms: _200  and  _201
REMARK   90  A    between atoms: _201  and  _202
REMARK   91  A    between atoms: _205  and  _207
REMARK   92  A    between atoms: _207  and  _208
REMARK   93  A    between atoms: _207  and  _210
REMARK   94  A    between atoms: _210  and  _211
REMARK   95  A    between atoms: _214  and  _216
REMARK   96  A    between atoms: _216  and  _217
REMARK   97  A    between atoms: _216  and  _219
REMARK   98  A    between atoms: _219  and  _220
REMARK   99  A    between atoms: _223  and  _225
REMARK  100  A    between atoms: _225  and  _226
REMARK  101  A    between atoms: _225  and  _228
REMARK  102  A    between atoms: _231  and  _233
REMARK  103  A    between atoms: _233  and  _234
REMARK  104  A    between atoms: _233  and  _236
REMARK  105  A    between atoms: _236  and  _237
REMARK  106  A    between atoms: _237  and  _238
REMARK  107  A    between atoms: _238  and  _239
REMARK  108  A    between atoms: _239  and  _240
REMARK  109  A    between atoms: _244  and  _246
REMARK  110  A    between atoms: _246  and  _247
REMARK  111  A    between atoms: _246  and  _249
REMARK  112  A    between atoms: _249  and  _250
REMARK  113  A    between atoms: _253  and  _255
REMARK  114  A    between atoms: _255  and  _256
REMARK  115  A    between atoms: _255  and  _258
REMARK  116  A    between atoms: _258  and  _259
REMARK  117  A    between atoms: _262  and  _264
REMARK  118  A    between atoms: _264  and  _265
REMARK  119  A    between atoms: _264  and  _267
REMARK  120  A    between atoms: _267  and  _268
REMARK  121  A    between atoms: _271  and  _273
REMARK  122  A    between atoms: _273  and  _274
REMARK  123  A    between atoms: _273  and  _276
REMARK  124  A    between atoms: _279  and  _281
REMARK  125  A    between atoms: _281  and  _282
REMARK  126  A    between atoms: _281  and  _284
REMARK  127  A    between atoms: _284  and  _285
REMARK  128  A    between atoms: _291  and  _293
REMARK  129  A    between atoms: _293  and  _294
REMARK  130  A    between atoms: _293  and  _296
REMARK  131  A    between atoms: _296  and  _297
REMARK  132  A    between atoms: _297  and  _298
REMARK  133  A    between atoms: _301  and  _303
REMARK  134  A    between atoms: _303  and  _304
REMARK  135  A    between atoms: _303  and  _306
REMARK  136  A    between atoms: _306  and  _307
REMARK  137  A    between atoms: _313  and  _315
REMARK  138  A    between atoms: _315  and  _316
REMARK  139  A    between atoms: _315  and  _318
REMARK  140  A    between atoms: _318  and  _319
REMARK  141  A    between atoms: _322  and  _324
REMARK  142  A    between atoms: _324  and  _325
REMARK  143  A    between atoms: _324  and  _327
REMARK  144  A    between atoms: _327  and  _328
REMARK  145  A    between atoms: _333  and  _335
REMARK  146  A    between atoms: _335  and  _336
REMARK  147  A    between atoms: _335  and  _338
REMARK  148  A    between atoms: _338  and  _339
REMARK  149  A    between atoms: _339  and  _340
REMARK  150  A    between atoms: _345  and  _347
REMARK  151  A    between atoms: _347  and  _348
REMARK  152  A    between atoms: _347  and  _350
REMARK  153  A    between atoms: _350  and  _351
REMARK  154  A    between atoms: _354  and  _356
REMARK  155  A    between atoms: _356  and  _357
REMARK  156  A    between atoms: _356  and  _359
REMARK  157  A    between atoms: _359  and  _360
REMARK  158  A    between atoms: _363  and  _365
REMARK  159  A    between atoms: _365  and  _366
REMARK  160  A    between atoms: _365  and  _368
REMARK  161  A    between atoms: _368  and  _369
REMARK  162  A    between atoms: _369  and  _370
REMARK  163  A    between atoms: _370  and  _371
REMARK  164  A    between atoms: _371  and  _372
REMARK  165  A    between atoms: _376  and  _378
REMARK  166  A    between atoms: _378  and  _379
REMARK  167  A    between atoms: _378  and  _381
REMARK  168  A    between atoms: _381  and  _382
REMARK  169  A    between atoms: _382  and  _383
REMARK  170  A    between atoms: _383  and  _384
REMARK  171  A    between atoms: _384  and  _385
REMARK  172  A    between atoms: _389  and  _391
REMARK  173  A    between atoms: _391  and  _392
REMARK  174  A    between atoms: _391  and  _394
REMARK  175  A    between atoms: _394  and  _395
REMARK  176  A    between atoms: _401  and  _403
REMARK  177  A    between atoms: _403  and  _404
REMARK  178  A    between atoms: _403  and  _406
REMARK  179  A    between atoms: _406  and  _407
REMARK  180  A    between atoms: _410  and  _412
REMARK  181  A    between atoms: _412  and  _413
REMARK  182  A    between atoms: _412  and  _415
REMARK  183  A    between atoms: _415  and  _416
REMARK  184  A    between atoms: _416  and  _417
REMARK  185  A    between atoms: _417  and  _418
REMARK  186  A    between atoms: _418  and  _419
REMARK  187  A    between atoms: _424  and  _425
REMARK  188  A    between atoms: _430  and  _432
REMARK  189  A    between atoms: _432  and  _433
REMARK  190  A    between atoms: _432  and  _435
REMARK  191  A    between atoms: _435  and  _436
REMARK  192  A    between atoms: _436  and  _437
REMARK  193  A    between atoms: _442  and  _444
REMARK  194  A    between atoms: _444  and  _445
REMARK  195  A    between atoms: _444  and  _447
REMARK  196  A    between atoms: _447  and  _448
REMARK  197  A    between atoms: _453  and  _455
REMARK  198  A    between atoms: _455  and  _456
REMARK  199  A    between atoms: _455  and  _458
REMARK  200  A    between atoms: _458  and  _459
REMARK  201  A    between atoms: _462  and  _464
REMARK  202  A    between atoms: _464  and  _465
REMARK  203  A    between atoms: _464  and  _467
REMARK  204  A    between atoms: _467  and  _468
REMARK  205  A    between atoms: _471  and  _473
REMARK  206  A    between atoms: _473  and  _474
REMARK  207  A    between atoms: _473  and  _476
REMARK  208  A    between atoms: _476  and  _477
REMARK  209  A    between atoms: _480  and  _482
REMARK  210  A    between atoms: _482  and  _483
REMARK  211  A    between atoms: _482  and  _485
REMARK  212  A    between atoms: _485  and  _486
REMARK  213  A    between atoms: _489  and  _491
REMARK  214  A    between atoms: _491  and  _492
REMARK  215  A    between atoms: _495  and  _497
REMARK  216  A    between atoms: _497  and  _498
REMARK  217  A    between atoms: _497  and  _500
REMARK  218  A    between atoms: _500  and  _501
REMARK  219  A    between atoms: _504  and  _506
REMARK  220  A    between atoms: _506  and  _507
REMARK  221  A    between atoms: _506  and  _509
REMARK  222  A    between atoms: _509  and  _510
REMARK  223  A    between atoms: _516  and  _518
REMARK  224  A    between atoms: _518  and  _519
REMARK  225  A    between atoms: _521  and  _523
REMARK  226  A    between atoms: _523  and  _524
REMARK  227  A    between atoms: _523  and  _526
REMARK  228  A    between atoms: _526  and  _527
REMARK                            x       y       z     vdW  Elec       q    Type
REMARK                         _______ _______ _______ _____ _____    ______ ____
ROOT
ATOM      1  CA  LYS A   3     -17.669  20.027 -20.086  0.00  0.00    +0.149 C 
ENDROOT
BRANCH   1   4
ATOM      2  C   VAL A   2     -15.979  21.231 -18.858  0.00  0.00    +0.241 C 
ATOM      3  O   VAL A   2     -15.994  20.385 -17.967  0.00  0.00    -0.273 OA
ATOM      4  N   LYS A   3     -16.714  21.116 -19.953  0.00  0.00    -0.297 N 
ATOM      5  H   LYS A   3     -16.608  21.808 -20.722  0.00  0.00    +0.150 HD
BRANCH   2   6
ATOM      6  CA  VAL A   2     -15.097  22.470 -18.750  0.00  0.00    +0.148 C 
BRANCH   6   8
ATOM      7  C   ILE A   1     -16.358  23.327 -16.877  0.00  0.00    +0.238 C 
ATOM      8  N   VAL A   2     -15.176  23.005 -17.392  0.00  0.00    -0.297 N 
ATOM      9  H   VAL A   2     -14.310  23.133 -16.831  0.00  0.00    +0.150 HD
ATOM     10  O   ILE A   1     -17.416  23.162 -17.498  0.00  0.00    -0.274 OA
BRANCH   7  11
ATOM     11  CA  ILE A   1     -16.371  23.945 -15.484  0.00  0.00    +0.145 C 
BRANCH  11  12
ATOM     12  N   ILE A   1     -17.123  25.196 -15.607  0.00  0.00    -0.238 NA
ATOM     13  H   ILE A   1     -18.069  25.161 -16.038  0.00  0.00    +0.142 HD
ENDBRANCH  11  12
BRANCH  11  14
ATOM     14  CB  ILE A   1     -17.045  22.967 -14.467  0.00  0.00    +0.025 C 
ATOM     15  CG2 ILE A   1     -16.345  21.587 -14.462  0.00  0.00    +0.002 C 
BRANCH  14  16
ATOM     16  CG1 ILE A   1     -17.071  23.582 -13.054  0.00  0.00    +0.002 C 
ATOM     17  CD1 ILE A   1     -17.836  22.727 -12.025  0.00  0.00    +0.000 C 
ENDBRANCH  14  16
ENDBRANCH  11  14
ENDBRANCH   7  11
ENDBRANCH   6   8
BRANCH   6  18
ATOM     18  CB  VAL A   2     -13.664  22.095 -19.141  0.00  0.00    +0.027 C 
ATOM     19  CG2 VAL A   2     -13.182  20.906 -18.305  0.00  0.00    +0.002 C 
ATOM     20  CG1 VAL A   2     -13.594  21.775 -20.634  0.00  0.00    +0.002 C 
ENDBRANCH   6  18
ENDBRANCH   2   6
ENDBRANCH   1   4
BRANCH   1  21
ATOM     21  C   LYS A   3     -17.032  18.766 -20.661  0.00  0.00    +0.241 C 
ATOM     22  N   LEU A   4     -17.163  17.656 -19.938  0.00  0.00    -0.297 N 
ATOM     23  H   LEU A   4     -17.514  17.727 -18.961  0.00  0.00    +0.150 HD
ATOM     24  O   LYS A   3     -16.434  18.806 -21.735  0.00  0.00    -0.273 OA
BRANCH  22  25
ATOM     25  CA  LEU A   4     -16.828  16.340 -20.478  0.00  0.00    +0.149 C 
BRANCH  25  26
ATOM     26  C   LEU A   4     -17.975  15.884 -21.367  0.00  0.00    +0.241 C 
ATOM     27  O   LEU A   4     -19.092  15.695 -20.885  0.00  0.00    -0.273 OA
ATOM     28  N   LEU A   5     -17.704  15.721 -22.662  0.00  0.00    -0.298 N 
ATOM     29  H   LEU A   5     -16.724  15.826 -22.993  0.00  0.00    +0.150 HD
BRANCH  28  30
ATOM     30  CA  LEU A   5     -18.755  15.397 -23.631  0.00  0.00    +0.137 C 
BRANCH  30  31
ATOM     31  C   LEU A   5     -19.002  13.905 -23.776  0.00  0.00    +0.227 C 
ATOM     32  O   LEU A   5     -20.141  13.469 -23.967  0.00  0.00    -0.286 OA
ENDBRANCH  30  31
BRANCH  30  33
ATOM     33  CB  LEU A   5     -18.420  15.992 -25.012  0.00  0.00    +0.028 C 
BRANCH  33  34
ATOM     34  CG  LEU A   5     -18.216  17.511 -25.039  0.00  0.00    +0.002 C 
ATOM     35  CD2 LEU A   5     -19.463  18.229 -24.521  0.00  0.00    +0.000 C 
ATOM     36  CD1 LEU A   5     -17.852  18.015 -26.436  0.00  0.00    +0.000 C 
ENDBRANCH  33  34
ENDBRANCH  30  33
ENDBRANCH  28  30
ENDBRANCH  25  26
BRANCH  25  37
ATOM     37  CB  LEU A   4     -16.625  15.326 -19.354  0.00  0.00    +0.029 C 
BRANCH  37  38
ATOM     38  CG  LEU A   4     -16.278  13.899 -19.787  0.00  0.00    +0.002 C 
ATOM     39  CD2 LEU A   4     -16.146  12.999 -18.572  0.00  0.00    +0.000 C 
ATOM     40  CD1 LEU A   4     -14.997  13.868 -20.623  0.00  0.00    +0.000 C 
ENDBRANCH  37  38
ENDBRANCH  25  37
ENDBRANCH  22  25
ENDBRANCH   1  21
BRANCH   1  41
ATOM     41  CB  LYS A   3     -18.833  20.461 -20.972  0.00  0.00    +0.029 C 
BRANCH  41  42
ATOM     42  CG  LYS A   3     -19.973  19.467 -21.021  0.00  0.00    +0.000 C 
BRANCH  42  43
ATOM     43  CD  LYS A   3     -21.148  20.050 -21.793  0.00  0.00    -0.024 C 
BRANCH  43  44
ATOM     44  CE  LYS A   3     -22.266  19.036 -21.966  0.00  0.00    -0.086 C 
BRANCH  44  45
ATOM     45  NZ  LYS A   3     -23.256  19.513 -22.975  0.00  0.00    +0.380 N 
ATOM     46  HZ1 LYS A   3     -23.665  20.415 -22.658  0.00  0.00    -0.089 HD
ATOM     47  HZ2 LYS A   3     -24.012  18.806 -23.079  0.00  0.00    -0.089 HD
ATOM     48  HZ3 LYS A   3     -22.779  19.649 -23.889  0.00  0.00    -0.089 HD
ENDBRANCH  44  45
ENDBRANCH  43  44
ENDBRANCH  42  43
ENDBRANCH  41  42
ENDBRANCH   1  41
TORSDOF 22
REMARK  Name = ../refined-set-2016/4bco/4bco_pocket.pdb
REMARK  228 active torsions:
REMARK  status: ('A' for Active; 'I' for Inactive)
REMARK    1  A    between atoms: _1  and  _3
REMARK    2  A    between atoms: _3  and  _4
REMARK    3  A    between atoms: _3  and  _6
REMARK    4  A    between atoms: _9  and  _11
REMARK    5  A    between atoms: _11  and  _12
REMARK    6  A    between atoms: _11  and  _14
REMARK    7  A    between atoms: _14  and  _15
REMARK    8  A    between atoms: _15  and  _16
REMARK    9  A    between atoms: _19  and  _21
REMARK   10  A    between atoms: _21  and  _22
REMARK   11  A    between atoms: _21  and  _24
REMARK   12  A    between atoms: _24  and  _25
REMARK   13  A    between atoms: _25  and  _26
REMARK   14  A    between atoms: _26  and  _27
REMARK   15  A    between atoms: _27  and  _28
REMARK   16  A    between atoms: _32  and  _34
REMARK   17  A    between atoms: _34  and  _35
REMARK   18  A    between atoms: _34  and  _37
REMARK   19  A    between atoms: _37  and  _38
REMARK   20  A    between atoms: _41  and  _43
REMARK   21  A    between atoms: _43  and  _44
REMARK   22  A    between atoms: _46  and  _48
REMARK   23  A    between atoms: _48  and  _49
REMARK   24  A    between atoms: _48  and  _51
REMARK   25  A    between atoms: _51  and  _52
REMARK   26  A    between atoms: _52  and  _53
REMARK   27  A    between atoms: _56  and  _58
REMARK   28  A    between atoms: _58  and  _59
REMARK   29  A    between atoms: _61  and  _63
REMARK   30  A    between atoms: _63  and  _64
REMARK   31  A    between atoms: _63  and  _66
REMARK   32  A    between atoms: _66  and  _67
REMARK   33  A    between atoms: _70  and  _72
REMARK   34  A    between atoms: _72  and  _73
REMARK   35  A    between atoms: _72  and  _75
REMARK   36  A    between atoms: _75  and  _76
REMARK   37  A    between atoms: _81  and  _82
REMARK   38  A    between atoms: _84  and  _86
REMARK   39  A    between atoms: _86  and  _87
REMARK   40  A    between atoms: _89  and  _91
REMARK   41  A    between atoms: _91  and  _92
REMARK   42  A    between atoms: _91  and  _94
REMARK   43  A    between atoms: _97  and  _99
REMARK   44  A    between atoms: _99  and  _100
REMARK   45  A    between atoms: _99  and  _102
REMARK   46  A    between atoms: _105  and  _107
REMARK   47  A    between atoms: _107  and  _108
REMARK   48  A    between atoms: _107  and  _110
REMARK   49  A    between atoms: _110  and  _111
REMARK   50  A    between atoms: _116  and  _117
REMARK   51  A    between atoms: _119  and  _121
REMARK   52  A    between atoms: _121  and  _122
REMARK   53  A    between atoms: _121  and  _124
REMARK   54  A    between atoms: _124  and  _125
REMARK   55  A    between atoms: _125  and  _126
REMARK   56  A    between atoms: _126  and  _127
REMARK   57  A    between atoms: _127  and  _128
REMARK   58  A    between atoms: _132  and  _134
REMARK   59  A    between atoms: _134  and  _135
REMARK   60  A    between atoms: _138  and  _140
REMARK   61  A    between atoms: _140  and  _141
REMARK   62  A    between atoms: _140  and  _143
REMARK   63  A    between atoms: _146  and  _148
REMARK   64  A    between atoms: _148  and  _149
REMARK   65  A    between atoms: _148  and  _151
REMARK   66  A    between atoms: _154  and  _156
REMARK   67  A    between atoms: _156  and  _157
REMARK   68  A    between atoms: _160  and  _162
REMARK   69  A    between atoms: _162  and  _163
REMARK   70  A    between atoms: _162  and  _165
REMARK   71  A    between atoms: _165  and  _166
REMARK   72  A    between atoms: _169  and  _171
REMARK   73  A    between atoms: _171  and  _172
REMARK   74  A    between atoms: _171  and  _174
REMARK   75  A    between atoms: _174  and  _175
REMARK   76  A    between atoms: _175  and  _176
REMARK   77  A    between atoms: _176  and  _177
REMARK   78  A    between atoms: _177  and  _178
REMARK   79  A    between atoms: _182  and  _184
REMARK   80  A    between atoms: _184  and  _185
REMARK   81  A    between atoms: _184  and  _187
REMARK   82  A    between atoms: _187  and  _188
REMARK   83  A    between atoms: _188  and  _189
REMARK   84  A    between atoms: _189  and  _190
REMARK   85  A    between atoms: _190  and  _191
REMARK   86  A    between atoms: _195  and  _197
REMARK   87  A    between atoms: _197  and  _198
REMARK   88  A    between atoms: _197  and  _200
REMARK   89  A    between atoms: _200  and  _201
REMARK   90  A    between atoms: _201  and  _202
REMARK   91  A    between atoms: _205  and  _207
REMARK   92  A    between atoms: _207  and  _208
REMARK   93  A    between atoms: _207  and  _210
REMARK   94  A    between atoms: _210  and  _211
REMARK   95  A    between atoms: _214  and  _216
REMARK   96  A    between atoms: _216  and  _217
REMARK   97  A    between atoms: _216  and  _219
REMARK   98  A    between atoms: _219  and  _220
REMARK   99  A    between atoms: _223  and  _225
REMARK  100  A    between atoms: _225  and  _226
REMARK  101  A    between atoms: _225  and  _228
REMARK  102  A    between atoms: _231  and  _233
REMARK  103  A    between atoms: _233  and  _234
REMARK  104  A    between atoms: _233  and  _236
REMARK  105  A    between atoms: _236  and  _237
REMARK  106  A    between atoms: _237  and  _238
REMARK  107  A    between atoms: _238  and  _239
REMARK  108  A    between atoms: _239  and  _240
REMARK  109  A    between atoms: _244  and  _246
REMARK  110  A    between atoms: _246  and  _247
REMARK  111  A    between atoms: _246  and  _249
REMARK  112  A    between atoms: _249  and  _250
REMARK  113  A    between atoms: _253  and  _255
REMARK  114  A    between atoms: _255  and  _256
REMARK  115  A    between atoms: _255  and  _258
REMARK  116  A    between atoms: _258  and  _259
REMARK  117  A    between atoms: _262  and  _264
REMARK  118  A    between atoms: _264  and  _265
REMARK  119  A    between atoms: _264  and  _267
REMARK  120  A    between atoms: _267  and  _268
REMARK  121  A    between atoms: _271  and  _273
REMARK  122  A    between atoms: _273  and  _274
REMARK  123  A    between atoms: _273  and  _276
REMARK  124  A    between atoms: _279  and  _281
REMARK  125  A    between atoms: _281  and  _282
REMARK  126  A    between atoms: _281  and  _284
REMARK  127  A    between atoms: _284  and  _285
REMARK  128  A    between atoms: _291  and  _293
REMARK  129  A    between atoms: _293  and  _294
REMARK  130  A    between atoms: _293  and  _296
REMARK  131  A    between atoms: _296  and  _297
REMARK  132  A    between atoms: _297  and  _298
REMARK  133  A    between atoms: _301  and  _303
REMARK  134  A    between atoms: _303  and  _304
REMARK  135  A    between atoms: _303  and  _306
REMARK  136  A    between atoms: _306  and  _307
REMARK  137  A    between atoms: _313  and  _315
REMARK  138  A    between atoms: _315  and  _316
REMARK  139  A    between atoms: _315  and  _318
REMARK  140  A    between atoms: _318  and  _319
REMARK  141  A    between atoms: _322  and  _324
REMARK  142  A    between atoms: _324  and  _325
REMARK  143  A    between atoms: _324  and  _327
REMARK  144  A    between atoms: _327  and  _328
REMARK  145  A    between atoms: _333  and  _335
REMARK  146  A    between atoms: _335  and  _336
REMARK  147  A    between atoms: _335  and  _338
REMARK  148  A    between atoms: _338  and  _339
REMARK  149  A    between atoms: _339  and  _340
REMARK  150  A    between atoms: _345  and  _347
REMARK  151  A    between atoms: _347  and  _348
REMARK  152  A    between atoms: _347  and  _350
REMARK  153  A    between atoms: _350  and  _351
REMARK  154  A    between atoms: _354  and  _356
REMARK  155  A    between atoms: _356  and  _357
REMARK  156  A    between atoms: _356  and  _359
REMARK  157  A    between atoms: _359  and  _360
REMARK  158  A    between atoms: _363  and  _365
REMARK  159  A    between atoms: _365  and  _366
REMARK  160  A    between atoms: _365  and  _368
REMARK  161  A    between atoms: _368  and  _369
REMARK  162  A    between atoms: _369  and  _370
REMARK  163  A    between atoms: _370  and  _371
REMARK  164  A    between atoms: _371  and  _372
REMARK  165  A    between atoms: _376  and  _378
REMARK  166  A    between atoms: _378  and  _379
REMARK  167  A    between atoms: _378  and  _381
REMARK  168  A    between atoms: _381  and  _382
REMARK  169  A    between atoms: _382  and  _383
REMARK  170  A    between atoms: _383  and  _384
REMARK  171  A    between atoms: _384  and  _385
REMARK  172  A    between atoms: _389  and  _391
REMARK  173  A    between atoms: _391  and  _392
REMARK  174  A    between atoms: _391  and  _394
REMARK  175  A    between atoms: _394  and  _395
REMARK  176  A    between atoms: _401  and  _403
REMARK  177  A    between atoms: _403  and  _404
REMARK  178  A    between atoms: _403  and  _406
REMARK  179  A    between atoms: _406  and  _407
REMARK  180  A    between atoms: _410  and  _412
REMARK  181  A    between atoms: _412  and  _413
REMARK  182  A    between atoms: _412  and  _415
REMARK  183  A    between atoms: _415  and  _416
REMARK  184  A    between atoms: _416  and  _417
REMARK  185  A    between atoms: _417  and  _418
REMARK  186  A    between atoms: _418  and  _419
REMARK  187  A    between atoms: _424  and  _425
REMARK  188  A    between atoms: _430  and  _432
REMARK  189  A    between atoms: _432  and  _433
REMARK  190  A    between atoms: _432  and  _435
REMARK  191  A    between atoms: _435  and  _436
REMARK  192  A    between atoms: _436  and  _437
REMARK  193  A    between atoms: _442  and  _444
REMARK  194  A    between atoms: _444  and  _445
REMARK  195  A    between atoms: _444  and  _447
REMARK  196  A    between atoms: _447  and  _448
REMARK  197  A    between atoms: _453  and  _455
REMARK  198  A    between atoms: _455  and  _456
REMARK  199  A    between atoms: _455  and  _458
REMARK  200  A    between atoms: _458  and  _459
REMARK  201  A    between atoms: _462  and  _464
REMARK  202  A    between atoms: _464  and  _465
REMARK  203  A    between atoms: _464  and  _467
REMARK  204  A    between atoms: _467  and  _468
REMARK  205  A    between atoms: _471  and  _473
REMARK  206  A    between atoms: _473  and  _474
REMARK  207  A    between atoms: _473  and  _476
REMARK  208  A    between atoms: _476  and  _477
REMARK  209  A    between atoms: _480  and  _482
REMARK  210  A    between atoms: _482  and  _483
REMARK  211  A    between atoms: _482  and  _485
REMARK  212  A    between atoms: _485  and  _486
REMARK  213  A    between atoms: _489  and  _491
REMARK  214  A    between atoms: _491  and  _492
REMARK  215  A    between atoms: _495  and  _497
REMARK  216  A    between atoms: _497  and  _498
REMARK  217  A    between atoms: _497  and  _500
REMARK  218  A    between atoms: _500  and  _501
REMARK  219  A    between atoms: _504  and  _506
REMARK  220  A    between atoms: _506  and  _507
REMARK  221  A    between atoms: _506  and  _509
REMARK  222  A    between atoms: _509  and  _510
REMARK  223  A    between atoms: _516  and  _518
REMARK  224  A    between atoms: _518  and  _519
REMARK  225  A    between atoms: _521  and  _523
REMARK  226  A    between atoms: _523  and  _524
REMARK  227  A    between atoms: _523  and  _526
REMARK  228  A    between atoms: _526  and  _527
REMARK                            x       y       z     vdW  Elec       q    Type
REMARK                         _______ _______ _______ _____ _____    ______ ____
ROOT
ATOM      1  C   HIS A   7      -7.653  28.724 -26.499  0.00  0.00    +0.241 C 
ATOM      2  N   GLN A   8      -7.536  28.777 -25.177  0.00  0.00    -0.297 N 
ATOM      3  H   GLN A   8      -8.345  28.523 -24.575  0.00  0.00    +0.150 HD
ATOM      4  O   HIS A   7      -6.685  28.819 -27.247  0.00  0.00    -0.273 OA
ENDROOT
BRANCH   1   5
ATOM      5  CA  HIS A   7      -9.051  28.525 -27.071  0.00  0.00    +0.155 C 
BRANCH   5   7
ATOM      6  C   LEU A   6     -10.168  26.659 -25.975  0.00  0.00    +0.241 C 
ATOM      7  N   HIS A   7     -10.054  27.967 -26.163  0.00  0.00    -0.297 N 
ATOM      8  H   HIS A   7     -10.692  28.611 -25.653  0.00  0.00    +0.150 HD
ATOM      9  O   LEU A   6      -9.313  25.848 -26.338  0.00  0.00    -0.273 OA
BRANCH   6  10
ATOM     10  CA  LEU A   6     -11.434  26.185 -25.291  0.00  0.00    +0.149 C 
BRANCH  10  12
ATOM     11  C   PHE A   5     -12.675  24.367 -26.298  0.00  0.00    +0.241 C 
ATOM     12  N   LEU A   6     -11.623  24.778 -25.604  0.00  0.00    -0.297 N 
ATOM     13  H   LEU A   6     -10.922  24.083 -25.278  0.00  0.00    +0.150 HD
ATOM     14  O   PHE A   5     -13.632  25.091 -26.557  0.00  0.00    -0.273 OA
BRANCH  11  15
ATOM     15  CA  PHE A   5     -12.643  22.923 -26.765  0.00  0.00    +0.153 C 
BRANCH  15  18
ATOM     16  C   GLU A   4     -14.124  21.630 -25.332  0.00  0.00    +0.241 C 
ATOM     17  O   GLU A   4     -13.293  21.617 -24.419  0.00  0.00    -0.273 OA
ATOM     18  N   PHE A   5     -13.903  22.238 -26.495  0.00  0.00    -0.297 N 
ATOM     19  H   PHE A   5     -14.643  22.225 -27.226  0.00  0.00    +0.150 HD
BRANCH  16  20
ATOM     20  CA  GLU A   4     -15.469  20.920 -25.170  0.00  0.00    +0.149 C 
BRANCH  20  22
ATOM     21  C   PHE A   3     -14.376  18.791 -24.847  0.00  0.00    +0.241 C 
ATOM     22  N   GLU A   4     -15.252  19.691 -24.414  0.00  0.00    -0.297 N 
ATOM     23  H   GLU A   4     -15.783  19.520 -23.536  0.00  0.00    +0.150 HD
ATOM     24  O   PHE A   3     -13.877  18.847 -25.967  0.00  0.00    -0.273 OA
BRANCH  21  25
ATOM     25  CA  PHE A   3     -13.966  17.693 -23.874  0.00  0.00    +0.153 C 
BRANCH  25  28
ATOM     26  C   VAL A   2     -14.310  15.346 -24.497  0.00  0.00    +0.241 C 
ATOM     27  O   VAL A   2     -15.340  15.254 -23.835  0.00  0.00    -0.273 OA
ATOM     28  N   PHE A   3     -13.605  16.471 -24.595  0.00  0.00    -0.297 N 
ATOM     29  H   PHE A   3     -12.765  16.482 -25.208  0.00  0.00    +0.150 HD
BRANCH  26  30
ATOM     30  CA  VAL A   2     -13.779  14.138 -25.265  0.00  0.00    +0.148 C 
BRANCH  30  32
ATOM     31  C   LEU A   1     -12.178  12.870 -23.949  0.00  0.00    +0.238 C 
ATOM     32  N   VAL A   2     -13.431  13.095 -24.314  0.00  0.00    -0.297 N 
ATOM     33  H   VAL A   2     -14.188  12.508 -23.908  0.00  0.00    +0.150 HD
ATOM     34  O   LEU A   1     -11.220  13.517 -24.387  0.00  0.00    -0.274 OA
BRANCH  31  35
ATOM     35  CA  LEU A   1     -11.966  11.738 -22.952  0.00  0.00    +0.145 C 
BRANCH  35  36
ATOM     36  N   LEU A   1     -11.007  10.789 -23.514  0.00  0.00    -0.238 NA
ATOM     37  H   LEU A   1      -9.991  10.929 -23.344  0.00  0.00    +0.142 HD
ENDBRANCH  35  36
BRANCH  35  38
ATOM     38  CB  LEU A   1     -11.470  12.315 -21.625  0.00  0.00    +0.026 C 
BRANCH  38  39
ATOM     39  CG  LEU A   1     -11.001  11.349 -20.536  0.00  0.00    +0.002 C 
ATOM     40  CD2 LEU A   1     -11.122  12.025 -19.176  0.00  0.00    +0.000 C 
ATOM     41  CD1 LEU A   1     -11.800  10.072 -20.569  0.00  0.00    +0.000 C 
ENDBRANCH  38  39
ENDBRANCH  35  38
ENDBRANCH  31  35
ENDBRANCH  30  32
BRANCH  30  42
ATOM     42  CB  VAL A   2     -14.857  13.642 -26.262  0.00  0.00    +0.027 C 
ATOM     43  CG2 VAL A   2     -14.400  12.369 -26.948  0.00  0.00    +0.002 C 
ATOM     44  CG1 VAL A   2     -15.180  14.717 -27.302  0.00  0.00    +0.002 C 
ENDBRANCH  30  42
ENDBRANCH  26  30
ENDBRANCH  25  28
BRANCH  25  45
ATOM     45  CB  PHE A   3     -12.753  18.233 -23.110  0.00  0.00    +0.055 C 
BRANCH  45  46
ATOM     46  CG  PHE A   3     -12.315  17.386 -21.957  0.00  0.00    -0.020 A 
ATOM     47  CD2 PHE A   3     -12.907  17.534 -20.710  0.00  0.00    -0.004 A 
ATOM     48  CE2 PHE A   3     -12.496  16.770 -19.636  0.00  0.00    -0.000 A 
ATOM     49  CZ  PHE A   3     -11.476  15.852 -19.793  0.00  0.00    -0.000 A 
ATOM     50  CE1 PHE A   3     -10.864  15.704 -21.022  0.00  0.00    -0.000 A 
ATOM     51  CD1 PHE A   3     -11.284  16.473 -22.100  0.00  0.00    -0.004 A 
ENDBRANCH  45  46
ENDBRANCH  25  45
ENDBRANCH  21  25
ENDBRANCH  20  22
BRANCH  20  52
ATOM     52  CB  GLU A   4     -16.453  21.841 -24.449  0.00  0.00    +0.041 C 
BRANCH  52  53
ATOM     53  CG  GLU A   4     -15.955  22.322 -23.100  0.00  0.00    +0.116 C 
BRANCH  53  54
ATOM     54  CD  GLU A   4     -16.809  23.432 -22.506  0.00  0.00    +0.365 C 
ATOM     55  OE2 GLU A   4     -17.049  23.404 -21.285  0.00  0.00    -0.246 OA
ATOM     56  OE1 GLU A   4     -17.234  24.332 -23.256  0.00  0.00    -0.246 OA
ENDBRANCH  53  54
ENDBRANCH  52  53
ENDBRANCH  20  52
ENDBRANCH  16  20
ENDBRANCH  15  18
BRANCH  15  57
ATOM     57  CB  PHE A   5     -12.302  22.876 -28.258  0.00  0.00    +0.055 C 
BRANCH  57  58
ATOM     58  CG  PHE A   5     -11.025  23.605 -28.623  0.00  0.00    -0.020 A 
ATOM     59  CD2 PHE A   5      -9.787  23.053 -28.335  0.00  0.00    -0.004 A 
ATOM     60  CE2 PHE A   5      -8.607  23.714 -28.676  0.00  0.00    -0.000 A 
ATOM     61  CZ  PHE A   5      -8.658  24.936 -29.318  0.00  0.00    -0.000 A 
ATOM     62  CE1 PHE A   5      -9.892  25.497 -29.619  0.00  0.00    -0.000 A 
ATOM     63  CD1 PHE A   5     -11.067  24.829 -29.274  0.00  0.00    -0.004 A 
ENDBRANCH  57  58
ENDBRANCH  15  57
ENDBRANCH  11  15
ENDBRANCH  10  12
BRANCH  10  64
ATOM     64  CB  LEU A   6     -11.409  26.423 -23.779  0.00  0.00    +0.029 C 
BRANCH  64  65
ATOM     65  CG  LEU A   6     -12.838  26.431 -23.220  0.00  0.00    +0.002 C 
ATOM     66  CD2 LEU A   6     -13.040  27.541 -22.192  0.00  0.00    +0.000 C 
ATOM     67  CD1 LEU A   6     -13.209  25.077 -22.636  0.00  0.00    +0.000 C 
ENDBRANCH  64  65
ENDBRANCH  10  64
ENDBRANCH   6  10
ENDBRANCH   5   7
BRANCH   5  68
ATOM     68  CB  HIS A   7      -9.581  29.832 -27.659  0.00  0.00    +0.076 C 
BRANCH  68  69
ATOM     69  CG  HIS A   7     -10.897  29.668 -28.351  0.00  0.00    +0.082 A 
ATOM     70  ND1 HIS A   7     -12.100  29.686 -27.678  0.00  0.00    -0.227 NA
ATOM     71  CE1 HIS A   7     -13.084  29.483 -28.533  0.00  0.00    +0.199 A 
ATOM     72  NE2 HIS A   7     -12.563  29.319 -29.738  0.00  0.00    -0.221 NA
ATOM     73  CD2 HIS A   7     -11.196  29.422 -29.649  0.00  0.00    +0.115 A 
ENDBRANCH  68  69
ENDBRANCH   5  68
ENDBRANCH   1   5
BRANCH   2  74
ATOM     74  CA  GLN A   8      -6.287  29.187 -24.572  0.00  0.00    +0.149 C 
BRANCH  74  75
ATOM     75  C   GLN A   8      -6.385  28.975 -23.068  0.00  0.00    +0.241 C 
ATOM     76  N   ASP A   9      -5.239  28.854 -22.402  0.00  0.00    -0.297 N 
ATOM     77  H   ASP A   9      -4.346  28.782 -22.930  0.00  0.00    +0.150 HD
ATOM     78  O   GLN A   8      -7.486  28.889 -22.528  0.00  0.00    -0.273 OA
BRANCH  76  79
ATOM     79  CA  ASP A   9      -5.215  28.821 -20.948  0.00  0.00    +0.160 C 
BRANCH  79  80
ATOM     80  C   ASP A   9      -4.819  30.188 -20.415  0.00  0.00    +0.241 C 
ATOM     81  N   LEU A  10      -5.124  30.423 -19.144  0.00  0.00    -0.297 N 
ATOM     82  H   LEU A  10      -5.528  29.653 -18.573  0.00  0.00    +0.150 HD
ATOM     83  O   ASP A   9      -4.251  31.011 -21.144  0.00  0.00    -0.273 OA
BRANCH  81  84
ATOM     84  CA  LEU A  10      -4.911  31.723 -18.524  0.00  0.00    +0.149 C 
BRANCH  84  85
ATOM     85  C   LEU A  10      -3.441  32.103 -18.478  0.00  0.00    +0.241 C 
ATOM     86  N   LYS A  11      -2.573  31.107 -18.338  0.00  0.00    -0.297 N 
ATOM     87  H   LYS A  11      -2.913  30.124 -18.314  0.00  0.00    +0.150 HD
ATOM     88  O   LEU A  10      -3.094  33.282 -18.559  0.00  0.00    -0.273 OA
BRANCH  86  89
ATOM     89  CA  LYS A  11      -1.150  31.383 -18.218  0.00  0.00    +0.149 C 
BRANCH  89  90
ATOM     90  C   LYS A  11      -0.621  32.036 -19.497  0.00  0.00    +0.241 C 
ATOM     91  O   LYS A  11       0.061  33.062 -19.449  0.00  0.00    -0.273 OA
ATOM     92  N   LYS A  12      -0.949  31.450 -20.641  0.00  0.00    -0.297 N 
ATOM     93  H   LYS A  12      -1.508  30.573 -20.630  0.00  0.00    +0.150 HD
BRANCH  92  94
ATOM     94  CA  LYS A  12      -0.532  32.025 -21.913  0.00  0.00    +0.149 C 
BRANCH  94  95
ATOM     95  C   LYS A  12      -1.189  33.384 -22.133  0.00  0.00    +0.241 C 
ATOM     96  N   PHE A  13      -2.437  33.525 -21.693  0.00  0.00    -0.298 N 
ATOM     97  H   PHE A  13      -2.918  32.723 -21.239  0.00  0.00    +0.150 HD
ATOM     98  O   LYS A  12      -0.572  34.300 -22.675  0.00  0.00    -0.273 OA
BRANCH  96  99
ATOM     99  CA  PHE A  13      -3.134  34.796 -21.843  0.00  0.00    +0.141 C 
BRANCH  99 100
ATOM    100  C   PHE A  13      -2.437  35.909 -21.057  0.00  0.00    +0.227 C 
ATOM    101  O   PHE A  13      -2.240  37.008 -21.568  0.00  0.00    -0.286 OA
ENDBRANCH  99 100
BRANCH  99 102
ATOM    102  CB  PHE A  13      -4.591  34.660 -21.418  0.00  0.00    +0.054 C 
BRANCH 102 103
ATOM    103  CG  PHE A  13      -5.391  35.925 -21.566  0.00  0.00    -0.020 A 
ATOM    104  CD2 PHE A  13      -5.834  36.615 -20.447  0.00  0.00    -0.004 A 
ATOM    105  CE2 PHE A  13      -6.583  37.776 -20.579  0.00  0.00    -0.000 A 
ATOM    106  CZ  PHE A  13      -6.900  38.253 -21.841  0.00  0.00    -0.000 A 
ATOM    107  CE1 PHE A  13      -6.469  37.568 -22.967  0.00  0.00    -0.000 A 
ATOM    108  CD1 PHE A  13      -5.723  36.409 -22.826  0.00  0.00    -0.004 A 
ENDBRANCH 102 103
ENDBRANCH  99 102
ENDBRANCH  96  99
ENDBRANCH  94  95
BRANCH  94 109
ATOM    109  CB  LYS A  12      -0.835  31.075 -23.074  0.00  0.00    +0.029 C 
BRANCH 109 110
ATOM    110  CG  LYS A  12       0.372  30.262 -23.519  0.00  0.00    +0.000 C 
BRANCH 110 111
ATOM    111  CD  LYS A  12       0.261  28.806 -23.105  0.00  0.00    -0.024 C 
BRANCH 111 112
ATOM    112  CE  LYS A  12      -0.680  28.044 -24.028  0.00  0.00    -0.086 C 
BRANCH 112 113
ATOM    113  NZ  LYS A  12      -0.888  26.637 -23.580  0.00  0.00    +0.380 N 
ATOM    114  HZ1 LYS A  12      -1.299  26.636 -22.625  0.00  0.00    -0.089 HD
ATOM    115  HZ2 LYS A  12       0.026  26.140 -23.566  0.00  0.00    -0.089 HD
ATOM    116  HZ3 LYS A  12      -1.535  26.157 -24.238  0.00  0.00    -0.089 HD
ENDBRANCH 112 113
ENDBRANCH 111 112
ENDBRANCH 110 111
ENDBRANCH 109 110
ENDBRANCH  94 109
ENDBRANCH  92  94
ENDBRANCH  89  90
BRANCH  89 117
ATOM    117  CB  LYS A  11      -0.367  30.113 -17.891  0.00  0.00    +0.029 C 
BRANCH 117 118
ATOM    118  CG  LYS A  11       1.141  30.326 -17.833  0.00  0.00    +0.000 C 
BRANCH 118 119
ATOM    119  CD  LYS A  11       1.496  31.520 -16.957  0.00  0.00    -0.024 C 
BRANCH 119 120
ATOM    120  CE  LYS A  11       2.994  31.799 -16.977  0.00  0.00    -0.086 C 
BRANCH 120 121
ATOM    121  NZ  LYS A  11       3.368  32.956 -16.114  0.00  0.00    +0.380 N 
ATOM    122  HZ1 LYS A  11       3.091  32.758 -15.131  0.00  0.00    -0.089 HD
ATOM    123  HZ2 LYS A  11       4.396  33.105 -16.162  0.00  0.00    -0.089 HD
ATOM    124  HZ3 LYS A  11       2.877  33.810 -16.449  0.00  0.00    -0.089 HD
ENDBRANCH 120 121
ENDBRANCH 119 120
ENDBRANCH 118 119
ENDBRANCH 117 118
ENDBRANCH  89 117
ENDBRANCH  86  89
ENDBRANCH  84  85
BRANCH  84 125
ATOM    125  CB  LEU A  10      -5.504  31.737 -17.109  0.00  0.00    +0.029 C 
BRANCH 125 126
ATOM    126  CG  LEU A  10      -5.483  33.049 -16.329  0.00  0.00    +0.002 C 
ATOM    127  CD2 LEU A  10      -5.989  32.827 -14.901  0.00  0.00    +0.000 C 
ATOM    128  CD1 LEU A  10      -6.316  34.115 -17.050  0.00  0.00    +0.000 C 
ENDBRANCH 125 126
ENDBRANCH  84 125
ENDBRANCH  81  84
ENDBRANCH  79  80
BRANCH  79 129
ATOM    129  CB  ASP A   9      -4.288  27.718 -20.410  0.00  0.00    +0.143 C 
BRANCH 129 130
ATOM    130  CG  ASP A   9      -2.812  27.973 -20.699  0.00  0.00    +0.367 C 
ATOM    131  OD2 ASP A   9      -2.320  29.087 -20.452  0.00  0.00    -0.246 OA
ATOM    132  OD1 ASP A   9      -2.130  27.038 -21.159  0.00  0.00    -0.246 OA
ENDBRANCH 129 130
ENDBRANCH  79 129
ENDBRANCH  76  79
ENDBRANCH  74  75
BRANCH  74 133
ATOM    133  CB  GLN A   8      -6.055  30.667 -24.885  0.00  0.00    +0.039 C 
BRANCH 133 134
ATOM    134  CG  GLN A   8      -4.723  31.223 -24.447  0.00  0.00    +0.087 C 
BRANCH 134 135
ATOM    135  CD  GLN A   8      -3.557  30.446 -25.016  0.00  0.00    +0.219 C 
ATOM    136  OE1 GLN A   8      -3.253  29.347 -24.554  0.00  0.00    -0.275 OA
ATOM    137  NE2 GLN A   8      -2.896  31.013 -26.024  0.00  0.00    -0.329 N 
ATOM    138 HE21 GLN A   8      -3.191  31.944 -26.381  0.00  0.00    +0.145 HD
ATOM    139 HE22 GLN A   8      -2.085  30.524 -26.454  0.00  0.00    +0.145 HD
ENDBRANCH 134 135
ENDBRANCH 133 134
ENDBRANCH  74 133
ENDBRANCH   2  74
TORSDOF 59
REMARK  Name = ../refined-set-2016/4bco/4bco_pocket.pdb
REMARK  228 active torsions:
REMARK  status: ('A' for Active; 'I' for Inactive)
REMARK    1  A    between atoms: _1  and  _3
REMARK    2  A    between atoms: _3  and  _4
REMARK    3  A    between atoms: _3  and  _6
REMARK    4  A    between atoms: _9  and  _11
REMARK    5  A    between atoms: _11  and  _12
REMARK    6  A    between atoms: _11  and  _14
REMARK    7  A    between atoms: _14  and  _15
REMARK    8  A    between atoms: _15  and  _16
REMARK    9  A    between atoms: _19  and  _21
REMARK   10  A    between atoms: _21  and  _22
REMARK   11  A    between atoms: _21  and  _24
REMARK   12  A    between atoms: _24  and  _25
REMARK   13  A    between atoms: _25  and  _26
REMARK   14  A    between atoms: _26  and  _27
REMARK   15  A    between atoms: _27  and  _28
REMARK   16  A    between atoms: _32  and  _34
REMARK   17  A    between atoms: _34  and  _35
REMARK   18  A    between atoms: _34  and  _37
REMARK   19  A    between atoms: _37  and  _38
REMARK   20  A    between atoms: _41  and  _43
REMARK   21  A    between atoms: _43  and  _44
REMARK   22  A    between atoms: _46  and  _48
REMARK   23  A    between atoms: _48  and  _49
REMARK   24  A    between atoms: _48  and  _51
REMARK   25  A    between atoms: _51  and  _52
REMARK   26  A    between atoms: _52  and  _53
REMARK   27  A    between atoms: _56  and  _58
REMARK   28  A    between atoms: _58  and  _59
REMARK   29  A    between atoms: _61  and  _63
REMARK   30  A    between atoms: _63  and  _64
REMARK   31  A    between atoms: _63  and  _66
REMARK   32  A    between atoms: _66  and  _67
REMARK   33  A    between atoms: _70  and  _72
REMARK   34  A    between atoms: _72  and  _73
REMARK   35  A    between atoms: _72  and  _75
REMARK   36  A    between atoms: _75  and  _76
REMARK   37  A    between atoms: _81  and  _82
REMARK   38  A    between atoms: _84  and  _86
REMARK   39  A    between atoms: _86  and  _87
REMARK   40  A    between atoms: _89  and  _91
REMARK   41  A    between atoms: _91  and  _92
REMARK   42  A    between atoms: _91  and  _94
REMARK   43  A    between atoms: _97  and  _99
REMARK   44  A    between atoms: _99  and  _100
REMARK   45  A    between atoms: _99  and  _102
REMARK   46  A    between atoms: _105  and  _107
REMARK   47  A    between atoms: _107  and  _108
REMARK   48  A    between atoms: _107  and  _110
REMARK   49  A    between atoms: _110  and  _111
REMARK   50  A    between atoms: _116  and  _117
REMARK   51  A    between atoms: _119  and  _121
REMARK   52  A    between atoms: _121  and  _122
REMARK   53  A    between atoms: _121  and  _124
REMARK   54  A    between atoms: _124  and  _125
REMARK   55  A    between atoms: _125  and  _126
REMARK   56  A    between atoms: _126  and  _127
REMARK   57  A    between atoms: _127  and  _128
REMARK   58  A    between atoms: _132  and  _134
REMARK   59  A    between atoms: _134  and  _135
REMARK   60  A    between atoms: _138  and  _140
REMARK   61  A    between atoms: _140  and  _141
REMARK   62  A    between atoms: _140  and  _143
REMARK   63  A    between atoms: _146  and  _148
REMARK   64  A    between atoms: _148  and  _149
REMARK   65  A    between atoms: _148  and  _151
REMARK   66  A    between atoms: _154  and  _156
REMARK   67  A    between atoms: _156  and  _157
REMARK   68  A    between atoms: _160  and  _162
REMARK   69  A    between atoms: _162  and  _163
REMARK   70  A    between atoms: _162  and  _165
REMARK   71  A    between atoms: _165  and  _166
REMARK   72  A    between atoms: _169  and  _171
REMARK   73  A    between atoms: _171  and  _172
REMARK   74  A    between atoms: _171  and  _174
REMARK   75  A    between atoms: _174  and  _175
REMARK   76  A    between atoms: _175  and  _176
REMARK   77  A    between atoms: _176  and  _177
REMARK   78  A    between atoms: _177  and  _178
REMARK   79  A    between atoms: _182  and  _184
REMARK   80  A    between atoms: _184  and  _185
REMARK   81  A    between atoms: _184  and  _187
REMARK   82  A    between atoms: _187  and  _188
REMARK   83  A    between atoms: _188  and  _189
REMARK   84  A    between atoms: _189  and  _190
REMARK   85  A    between atoms: _190  and  _191
REMARK   86  A    between atoms: _195  and  _197
REMARK   87  A    between atoms: _197  and  _198
REMARK   88  A    between atoms: _197  and  _200
REMARK   89  A    between atoms: _200  and  _201
REMARK   90  A    between atoms: _201  and  _202
REMARK   91  A    between atoms: _205  and  _207
REMARK   92  A    between atoms: _207  and  _208
REMARK   93  A    between atoms: _207  and  _210
REMARK   94  A    between atoms: _210  and  _211
REMARK   95  A    between atoms: _214  and  _216
REMARK   96  A    between atoms: _216  and  _217
REMARK   97  A    between atoms: _216  and  _219
REMARK   98  A    between atoms: _219  and  _220
REMARK   99  A    between atoms: _223  and  _225
REMARK  100  A    between atoms: _225  and  _226
REMARK  101  A    between atoms: _225  and  _228
REMARK  102  A    between atoms: _231  and  _233
REMARK  103  A    between atoms: _233  and  _234
REMARK  104  A    between atoms: _233  and  _236
REMARK  105  A    between atoms: _236  and  _237
REMARK  106  A    between atoms: _237  and  _238
REMARK  107  A    between atoms: _238  and  _239
REMARK  108  A    between atoms: _239  and  _240
REMARK  109  A    between atoms: _244  and  _246
REMARK  110  A    between atoms: _246  and  _247
REMARK  111  A    between atoms: _246  and  _249
REMARK  112  A    between atoms: _249  and  _250
REMARK  113  A    between atoms: _253  and  _255
REMARK  114  A    between atoms: _255  and  _256
REMARK  115  A    between atoms: _255  and  _258
REMARK  116  A    between atoms: _258  and  _259
REMARK  117  A    between atoms: _262  and  _264
REMARK  118  A    between atoms: _264  and  _265
REMARK  119  A    between atoms: _264  and  _267
REMARK  120  A    between atoms: _267  and  _268
REMARK  121  A    between atoms: _271  and  _273
REMARK  122  A    between atoms: _273  and  _274
REMARK  123  A    between atoms: _273  and  _276
REMARK  124  A    between atoms: _279  and  _281
REMARK  125  A    between atoms: _281  and  _282
REMARK  126  A    between atoms: _281  and  _284
REMARK  127  A    between atoms: _284  and  _285
REMARK  128  A    between atoms: _291  and  _293
REMARK  129  A    between atoms: _293  and  _294
REMARK  130  A    between atoms: _293  and  _296
REMARK  131  A    between atoms: _296  and  _297
REMARK  132  A    between atoms: _297  and  _298
REMARK  133  A    between atoms: _301  and  _303
REMARK  134  A    between atoms: _303  and  _304
REMARK  135  A    between atoms: _303  and  _306
REMARK  136  A    between atoms: _306  and  _307
REMARK  137  A    between atoms: _313  and  _315
REMARK  138  A    between atoms: _315  and  _316
REMARK  139  A    between atoms: _315  and  _318
REMARK  140  A    between atoms: _318  and  _319
REMARK  141  A    between atoms: _322  and  _324
REMARK  142  A    between atoms: _324  and  _325
REMARK  143  A    between atoms: _324  and  _327
REMARK  144  A    between atoms: _327  and  _328
REMARK  145  A    between atoms: _333  and  _335
REMARK  146  A    between atoms: _335  and  _336
REMARK  147  A    between atoms: _335  and  _338
REMARK  148  A    between atoms: _338  and  _339
REMARK  149  A    between atoms: _339  and  _340
REMARK  150  A    between atoms: _345  and  _347
REMARK  151  A    between atoms: _347  and  _348
REMARK  152  A    between atoms: _347  and  _350
REMARK  153  A    between atoms: _350  and  _351
REMARK  154  A    between atoms: _354  and  _356
REMARK  155  A    between atoms: _356  and  _357
REMARK  156  A    between atoms: _356  and  _359
REMARK  157  A    between atoms: _359  and  _360
REMARK  158  A    between atoms: _363  and  _365
REMARK  159  A    between atoms: _365  and  _366
REMARK  160  A    between atoms: _365  and  _368
REMARK  161  A    between atoms: _368  and  _369
REMARK  162  A    between atoms: _369  and  _370
REMARK  163  A    between atoms: _370  and  _371
REMARK  164  A    between atoms: _371  and  _372
REMARK  165  A    between atoms: _376  and  _378
REMARK  166  A    between atoms: _378  and  _379
REMARK  167  A    between atoms: _378  and  _381
REMARK  168  A    between atoms: _381  and  _382
REMARK  169  A    between atoms: _382  and  _383
REMARK  170  A    between atoms: _383  and  _384
REMARK  171  A    between atoms: _384  and  _385
REMARK  172  A    between atoms: _389  and  _391
REMARK  173  A    between atoms: _391  and  _392
REMARK  174  A    between atoms: _391  and  _394
REMARK  175  A    between atoms: _394  and  _395
REMARK  176  A    between atoms: _401  and  _403
REMARK  177  A    between atoms: _403  and  _404
REMARK  178  A    between atoms: _403  and  _406
REMARK  179  A    between atoms: _406  and  _407
REMARK  180  A    between atoms: _410  and  _412
REMARK  181  A    between atoms: _412  and  _413
REMARK  182  A    between atoms: _412  and  _415
REMARK  183  A    between atoms: _415  and  _416
REMARK  184  A    between atoms: _416  and  _417
REMARK  185  A    between atoms: _417  and  _418
REMARK  186  A    between atoms: _418  and  _419
REMARK  187  A    between atoms: _424  and  _425
REMARK  188  A    between atoms: _430  and  _432
REMARK  189  A    between atoms: _432  and  _433
REMARK  190  A    between atoms: _432  and  _435
REMARK  191  A    between atoms: _435  and  _436
REMARK  192  A    between atoms: _436  and  _437
REMARK  193  A    between atoms: _442  and  _444
REMARK  194  A    between atoms: _444  and  _445
REMARK  195  A    between atoms: _444  and  _447
REMARK  196  A    between atoms: _447  and  _448
REMARK  197  A    between atoms: _453  and  _455
REMARK  198  A    between atoms: _455  and  _456
REMARK  199  A    between atoms: _455  and  _458
REMARK  200  A    between atoms: _458  and  _459
REMARK  201  A    between atoms: _462  and  _464
REMARK  202  A    between atoms: _464  and  _465
REMARK  203  A    between atoms: _464  and  _467
REMARK  204  A    between atoms: _467  and  _468
REMARK  205  A    between atoms: _471  and  _473
REMARK  206  A    between atoms: _473  and  _474
REMARK  207  A    between atoms: _473  and  _476
REMARK  208  A    between atoms: _476  and  _477
REMARK  209  A    between atoms: _480  and  _482
REMARK  210  A    between atoms: _482  and  _483
REMARK  211  A    between atoms: _482  and  _485
REMARK  212  A    between atoms: _485  and  _486
REMARK  213  A    between atoms: _489  and  _491
REMARK  214  A    between atoms: _491  and  _492
REMARK  215  A    between atoms: _495  and  _497
REMARK  216  A    between atoms: _497  and  _498
REMARK  217  A    between atoms: _497  and  _500
REMARK  218  A    between atoms: _500  and  _501
REMARK  219  A    between atoms: _504  and  _506
REMARK  220  A    between atoms: _506  and  _507
REMARK  221  A    between atoms: _506  and  _509
REMARK  222  A    between atoms: _509  and  _510
REMARK  223  A    between atoms: _516  and  _518
REMARK  224  A    between atoms: _518  and  _519
REMARK  225  A    between atoms: _521  and  _523
REMARK  226  A    between atoms: _523  and  _524
REMARK  227  A    between atoms: _523  and  _526
REMARK  228  A    between atoms: _526  and  _527
REMARK                            x       y       z     vdW  Elec       q    Type
REMARK                         _______ _______ _______ _____ _____    ______ ____
ROOT
ATOM      1  CA  ASP A   1      -4.651  21.830  -8.700  0.00  0.00    +0.144 C 
ENDROOT
BRANCH   1   2
ATOM      2  N   ASP A   1      -5.734  21.430  -7.813  0.00  0.00    -0.239 NA
ATOM      3  H   ASP A   1      -6.719  21.686  -8.029  0.00  0.00    +0.142 HD
ENDBRANCH   1   2
BRANCH   1   4
ATOM      4  C   ASP A   1      -4.986  23.079  -9.496  0.00  0.00    +0.225 C 
ATOM      5  O   ASP A   1      -4.696  23.159 -10.688  0.00  0.00    -0.287 OA
ENDBRANCH   1   4
BRANCH   1   6
ATOM      6  CB  ASP A   1      -4.247  20.691  -9.641  0.00  0.00    +0.139 C 
BRANCH   6   7
ATOM      7  CG  ASP A   1      -2.862  20.912 -10.247  0.00  0.00    +0.367 C 
ATOM      8  OD2 ASP A   1      -2.050  21.615  -9.614  0.00  0.00    -0.246 OA
ATOM      9  OD1 ASP A   1      -2.588  20.393 -11.344  0.00  0.00    -0.246 OA
ENDBRANCH   6   7
ENDBRANCH   1   6
TORSDOF 4
REMARK  Name = ../refined-set-2016/4bco/4bco_pocket.pdb
REMARK  228 active torsions:
REMARK  status: ('A' for Active; 'I' for Inactive)
REMARK    1  A    between atoms: _1  and  _3
REMARK    2  A    between atoms: _3  and  _4
REMARK    3  A    between atoms: _3  and  _6
REMARK    4  A    between atoms: _9  and  _11
REMARK    5  A    between atoms: _11  and  _12
REMARK    6  A    between atoms: _11  and  _14
REMARK    7  A    between atoms: _14  and  _15
REMARK    8  A    between atoms: _15  and  _16
REMARK    9  A    between atoms: _19  and  _21
REMARK   10  A    between atoms: _21  and  _22
REMARK   11  A    between atoms: _21  and  _24
REMARK   12  A    between atoms: _24  and  _25
REMARK   13  A    between atoms: _25  and  _26
REMARK   14  A    between atoms: _26  and  _27
REMARK   15  A    between atoms: _27  and  _28
REMARK   16  A    between atoms: _32  and  _34
REMARK   17  A    between atoms: _34  and  _35
REMARK   18  A    between atoms: _34  and  _37
REMARK   19  A    between atoms: _37  and  _38
REMARK   20  A    between atoms: _41  and  _43
REMARK   21  A    between atoms: _43  and  _44
REMARK   22  A    between atoms: _46  and  _48
REMARK   23  A    between atoms: _48  and  _49
REMARK   24  A    between atoms: _48  and  _51
REMARK   25  A    between atoms: _51  and  _52
REMARK   26  A    between atoms: _52  and  _53
REMARK   27  A    between atoms: _56  and  _58
REMARK   28  A    between atoms: _58  and  _59
REMARK   29  A    between atoms: _61  and  _63
REMARK   30  A    between atoms: _63  and  _64
REMARK   31  A    between atoms: _63  and  _66
REMARK   32  A    between atoms: _66  and  _67
REMARK   33  A    between atoms: _70  and  _72
REMARK   34  A    between atoms: _72  and  _73
REMARK   35  A    between atoms: _72  and  _75
REMARK   36  A    between atoms: _75  and  _76
REMARK   37  A    between atoms: _81  and  _82
REMARK   38  A    between atoms: _84  and  _86
REMARK   39  A    between atoms: _86  and  _87
REMARK   40  A    between atoms: _89  and  _91
REMARK   41  A    between atoms: _91  and  _92
REMARK   42  A    between atoms: _91  and  _94
REMARK   43  A    between atoms: _97  and  _99
REMARK   44  A    between atoms: _99  and  _100
REMARK   45  A    between atoms: _99  and  _102
REMARK   46  A    between atoms: _105  and  _107
REMARK   47  A    between atoms: _107  and  _108
REMARK   48  A    between atoms: _107  and  _110
REMARK   49  A    between atoms: _110  and  _111
REMARK   50  A    between atoms: _116  and  _117
REMARK   51  A    between atoms: _119  and  _121
REMARK   52  A    between atoms: _121  and  _122
REMARK   53  A    between atoms: _121  and  _124
REMARK   54  A    between atoms: _124  and  _125
REMARK   55  A    between atoms: _125  and  _126
REMARK   56  A    between atoms: _126  and  _127
REMARK   57  A    between atoms: _127  and  _128
REMARK   58  A    between atoms: _132  and  _134
REMARK   59  A    between atoms: _134  and  _135
REMARK   60  A    between atoms: _138  and  _140
REMARK   61  A    between atoms: _140  and  _141
REMARK   62  A    between atoms: _140  and  _143
REMARK   63  A    between atoms: _146  and  _148
REMARK   64  A    between atoms: _148  and  _149
REMARK   65  A    between atoms: _148  and  _151
REMARK   66  A    between atoms: _154  and  _156
REMARK   67  A    between atoms: _156  and  _157
REMARK   68  A    between atoms: _160  and  _162
REMARK   69  A    between atoms: _162  and  _163
REMARK   70  A    between atoms: _162  and  _165
REMARK   71  A    between atoms: _165  and  _166
REMARK   72  A    between atoms: _169  and  _171
REMARK   73  A    between atoms: _171  and  _172
REMARK   74  A    between atoms: _171  and  _174
REMARK   75  A    between atoms: _174  and  _175
REMARK   76  A    between atoms: _175  and  _176
REMARK   77  A    between atoms: _176  and  _177
REMARK   78  A    between atoms: _177  and  _178
REMARK   79  A    between atoms: _182  and  _184
REMARK   80  A    between atoms: _184  and  _185
REMARK   81  A    between atoms: _184  and  _187
REMARK   82  A    between atoms: _187  and  _188
REMARK   83  A    between atoms: _188  and  _189
REMARK   84  A    between atoms: _189  and  _190
REMARK   85  A    between atoms: _190  and  _191
REMARK   86  A    between atoms: _195  and  _197
REMARK   87  A    between atoms: _197  and  _198
REMARK   88  A    between atoms: _197  and  _200
REMARK   89  A    between atoms: _200  and  _201
REMARK   90  A    between atoms: _201  and  _202
REMARK   91  A    between atoms: _205  and  _207
REMARK   92  A    between atoms: _207  and  _208
REMARK   93  A    between atoms: _207  and  _210
REMARK   94  A    between atoms: _210  and  _211
REMARK   95  A    between atoms: _214  and  _216
REMARK   96  A    between atoms: _216  and  _217
REMARK   97  A    between atoms: _216  and  _219
REMARK   98  A    between atoms: _219  and  _220
REMARK   99  A    between atoms: _223  and  _225
REMARK  100  A    between atoms: _225  and  _226
REMARK  101  A    between atoms: _225  and  _228
REMARK  102  A    between atoms: _231  and  _233
REMARK  103  A    between atoms: _233  and  _234
REMARK  104  A    between atoms: _233  and  _236
REMARK  105  A    between atoms: _236  and  _237
REMARK  106  A    between atoms: _237  and  _238
REMARK  107  A    between atoms: _238  and  _239
REMARK  108  A    between atoms: _239  and  _240
REMARK  109  A    between atoms: _244  and  _246
REMARK  110  A    between atoms: _246  and  _247
REMARK  111  A    between atoms: _246  and  _249
REMARK  112  A    between atoms: _249  and  _250
REMARK  113  A    between atoms: _253  and  _255
REMARK  114  A    between atoms: _255  and  _256
REMARK  115  A    between atoms: _255  and  _258
REMARK  116  A    between atoms: _258  and  _259
REMARK  117  A    between atoms: _262  and  _264
REMARK  118  A    between atoms: _264  and  _265
REMARK  119  A    between atoms: _264  and  _267
REMARK  120  A    between atoms: _267  and  _268
REMARK  121  A    between atoms: _271  and  _273
REMARK  122  A    between atoms: _273  and  _274
REMARK  123  A    between atoms: _273  and  _276
REMARK  124  A    between atoms: _279  and  _281
REMARK  125  A    between atoms: _281  and  _282
REMARK  126  A    between atoms: _281  and  _284
REMARK  127  A    between atoms: _284  and  _285
REMARK  128  A    between atoms: _291  and  _293
REMARK  129  A    between atoms: _293  and  _294
REMARK  130  A    between atoms: _293  and  _296
REMARK  131  A    between atoms: _296  and  _297
REMARK  132  A    between atoms: _297  and  _298
REMARK  133  A    between atoms: _301  and  _303
REMARK  134  A    between atoms: _303  and  _304
REMARK  135  A    between atoms: _303  and  _306
REMARK  136  A    between atoms: _306  and  _307
REMARK  137  A    between atoms: _313  and  _315
REMARK  138  A    between atoms: _315  and  _316
REMARK  139  A    between atoms: _315  and  _318
REMARK  140  A    between atoms: _318  and  _319
REMARK  141  A    between atoms: _322  and  _324
REMARK  142  A    between atoms: _324  and  _325
REMARK  143  A    between atoms: _324  and  _327
REMARK  144  A    between atoms: _327  and  _328
REMARK  145  A    between atoms: _333  and  _335
REMARK  146  A    between atoms: _335  and  _336
REMARK  147  A    between atoms: _335  and  _338
REMARK  148  A    between atoms: _338  and  _339
REMARK  149  A    between atoms: _339  and  _340
REMARK  150  A    between atoms: _345  and  _347
REMARK  151  A    between atoms: _347  and  _348
REMARK  152  A    between atoms: _347  and  _350
REMARK  153  A    between atoms: _350  and  _351
REMARK  154  A    between atoms: _354  and  _356
REMARK  155  A    between atoms: _356  and  _357
REMARK  156  A    between atoms: _356  and  _359
REMARK  157  A    between atoms: _359  and  _360
REMARK  158  A    between atoms: _363  and  _365
REMARK  159  A    between atoms: _365  and  _366
REMARK  160  A    between atoms: _365  and  _368
REMARK  161  A    between atoms: _368  and  _369
REMARK  162  A    between atoms: _369  and  _370
REMARK  163  A    between atoms: _370  and  _371
REMARK  164  A    between atoms: _371  and  _372
REMARK  165  A    between atoms: _376  and  _378
REMARK  166  A    between atoms: _378  and  _379
REMARK  167  A    between atoms: _378  and  _381
REMARK  168  A    between atoms: _381  and  _382
REMARK  169  A    between atoms: _382  and  _383
REMARK  170  A    between atoms: _383  and  _384
REMARK  171  A    between atoms: _384  and  _385
REMARK  172  A    between atoms: _389  and  _391
REMARK  173  A    between atoms: _391  and  _392
REMARK  174  A    between atoms: _391  and  _394
REMARK  175  A    between atoms: _394  and  _395
REMARK  176  A    between atoms: _401  and  _403
REMARK  177  A    between atoms: _403  and  _404
REMARK  178  A    between atoms: _403  and  _406
REMARK  179  A    between atoms: _406  and  _407
REMARK  180  A    between atoms: _410  and  _412
REMARK  181  A    between atoms: _412  and  _413
REMARK  182  A    between atoms: _412  and  _415
REMARK  183  A    between atoms: _415  and  _416
REMARK  184  A    between atoms: _416  and  _417
REMARK  185  A    between atoms: _417  and  _418
REMARK  186  A    between atoms: _418  and  _419
REMARK  187  A    between atoms: _424  and  _425
REMARK  188  A    between atoms: _430  and  _432
REMARK  189  A    between atoms: _432  and  _433
REMARK  190  A    between atoms: _432  and  _435
REMARK  191  A    between atoms: _435  and  _436
REMARK  192  A    between atoms: _436  and  _437
REMARK  193  A    between atoms: _442  and  _444
REMARK  194  A    between atoms: _444  and  _445
REMARK  195  A    between atoms: _444  and  _447
REMARK  196  A    between atoms: _447  and  _448
REMARK  197  A    between atoms: _453  and  _455
REMARK  198  A    between atoms: _455  and  _456
REMARK  199  A    between atoms: _455  and  _458
REMARK  200  A    between atoms: _458  and  _459
REMARK  201  A    between atoms: _462  and  _464
REMARK  202  A    between atoms: _464  and  _465
REMARK  203  A    between atoms: _464  and  _467
REMARK  204  A    between atoms: _467  and  _468
REMARK  205  A    between atoms: _471  and  _473
REMARK  206  A    between atoms: _473  and  _474
REMARK  207  A    between atoms: _473  and  _476
REMARK  208  A    between atoms: _476  and  _477
REMARK  209  A    between atoms: _480  and  _482
REMARK  210  A    between atoms: _482  and  _483
REMARK  211  A    between atoms: _482  and  _485
REMARK  212  A    between atoms: _485  and  _486
REMARK  213  A    between atoms: _489  and  _491
REMARK  214  A    between atoms: _491  and  _492
REMARK  215  A    between atoms: _495  and  _497
REMARK  216  A    between atoms: _497  and  _498
REMARK  217  A    between atoms: _497  and  _500
REMARK  218  A    between atoms: _500  and  _501
REMARK  219  A    between atoms: _504  and  _506
REMARK  220  A    between atoms: _506  and  _507
REMARK  221  A    between atoms: _506  and  _509
REMARK  222  A    between atoms: _509  and  _510
REMARK  223  A    between atoms: _516  and  _518
REMARK  224  A    between atoms: _518  and  _519
REMARK  225  A    between atoms: _521  and  _523
REMARK  226  A    between atoms: _523  and  _524
REMARK  227  A    between atoms: _523  and  _526
REMARK  228  A    between atoms: _526  and  _527
REMARK                            x       y       z     vdW  Elec       q    Type
REMARK                         _______ _______ _______ _____ _____    ______ ____
ROOT
ATOM      1  CA  ASN A   4      -5.641  24.580 -15.734  0.00  0.00    +0.158 C 
ENDROOT
BRANCH   1   2
ATOM      2  C   ASN A   4      -6.922  25.398 -15.828  0.00  0.00    +0.241 C 
ATOM      3  O   ASN A   4      -8.027  24.882 -15.610  0.00  0.00    -0.273 OA
ATOM      4  N   LEU A   5      -6.776  26.683 -16.127  0.00  0.00    -0.297 N 
ATOM      5  H   LEU A   5      -5.825  27.073 -16.285  0.00  0.00    +0.150 HD
BRANCH   4   6
ATOM      6  CA  LEU A   5      -7.943  27.550 -16.235  0.00  0.00    +0.149 C 
BRANCH   6   7
ATOM      7  C   LEU A   5      -8.038  28.020 -17.677  0.00  0.00    +0.241 C 
ATOM      8  O   LEU A   5      -7.138  28.692 -18.174  0.00  0.00    -0.273 OA
ATOM      9  N   LEU A   6      -9.122  27.649 -18.352  0.00  0.00    -0.297 N 
ATOM     10  H   LEU A   6      -9.921  27.218 -17.845  0.00  0.00    +0.150 HD
BRANCH   9  11
ATOM     11  CA  LEU A   6      -9.202  27.840 -19.796  0.00  0.00    +0.149 C 
BRANCH  11  12
ATOM     12  C   LEU A   6     -10.200  28.925 -20.183  0.00  0.00    +0.241 C 
ATOM     13  O   LEU A   6     -11.273  29.023 -19.599  0.00  0.00    -0.273 OA
ATOM     14  N   ILE A   7      -9.851  29.719 -21.190  0.00  0.00    -0.298 N 
ATOM     15  H   ILE A   7      -8.957  29.543 -21.691  0.00  0.00    +0.150 HD
BRANCH  14  16
ATOM     16  CA  ILE A   7     -10.698  30.834 -21.608  0.00  0.00    +0.137 C 
BRANCH  16  17
ATOM     17  CB  ILE A   7      -9.959  32.182 -21.443  0.00  0.00    +0.026 C 
ATOM     18  CG2 ILE A   7      -9.571  32.408 -19.980  0.00  0.00    +0.002 C 
BRANCH  17  19
ATOM     19  CG1 ILE A   7      -8.711  32.220 -22.329  0.00  0.00    +0.002 C 
ATOM     20  CD1 ILE A   7      -8.019  33.586 -22.359  0.00  0.00    +0.000 C 
ENDBRANCH  17  19
ENDBRANCH  16  17
BRANCH  16  21
ATOM     21  C   ILE A   7     -11.161  30.689 -23.060  0.00  0.00    +0.227 C 
ATOM     22  O   ILE A   7     -10.485  30.060 -23.873  0.00  0.00    -0.286 OA
ENDBRANCH  16  21
ENDBRANCH  14  16
ENDBRANCH  11  12
BRANCH  11  23
ATOM     23  CB  LEU A   6      -9.580  26.526 -20.475  0.00  0.00    +0.029 C 
BRANCH  23  24
ATOM     24  CG  LEU A   6      -8.744  25.295 -20.100  0.00  0.00    +0.002 C 
ATOM     25  CD2 LEU A   6      -7.260  25.542 -20.302  0.00  0.00    +0.000 C 
ATOM     26  CD1 LEU A   6      -9.214  24.077 -20.899  0.00  0.00    +0.000 C 
ENDBRANCH  23  24
ENDBRANCH  11  23
ENDBRANCH   9  11
ENDBRANCH   6   7
BRANCH   6  27
ATOM     27  CB  LEU A   5      -7.822  28.728 -15.276  0.00  0.00    +0.029 C 
BRANCH  27  28
ATOM     28  CG  LEU A   5      -7.687  28.333 -13.801  0.00  0.00    +0.002 C 
ATOM     29  CD2 LEU A   5      -7.534  29.564 -12.930  0.00  0.00    +0.000 C 
ATOM     30  CD1 LEU A   5      -8.871  27.499 -13.336  0.00  0.00    +0.000 C 
ENDBRANCH  27  28
ENDBRANCH   6  27
ENDBRANCH   4   6
ENDBRANCH   1   2
BRANCH   1  32
ATOM     31  C   GLN A   3      -3.720  25.587 -16.863  0.00  0.00    +0.241 C 
ATOM     32  N   ASN A   4      -4.436  25.418 -15.752  0.00  0.00    -0.297 N 
ATOM     33  H   ASN A   4      -4.134  25.891 -14.877  0.00  0.00    +0.150 HD
ATOM     34  O   GLN A   3      -4.039  25.076 -17.931  0.00  0.00    -0.273 OA
BRANCH  31  35
ATOM     35  CA  GLN A   3      -2.447  26.450 -16.760  0.00  0.00    +0.149 C 
BRANCH  35  37
ATOM     36  C   PRO A   2      -3.450  28.401 -15.688  0.00  0.00    +0.241 C 
ATOM     37  N   GLN A   3      -2.519  27.447 -15.690  0.00  0.00    -0.297 N 
ATOM     38  H   GLN A   3      -1.828  27.410 -14.914  0.00  0.00    +0.150 HD
ATOM     39  O   PRO A   2      -4.287  28.542 -16.583  0.00  0.00    -0.273 OA
BRANCH  36  45
ATOM     40  C   LYS A   1      -3.627  27.647 -12.805  0.00  0.00    +0.241 C 
ATOM     41  N   PRO A   2      -2.985  28.721 -13.279  0.00  0.00    -0.272 N 
ATOM     42  CD  PRO A   2      -1.794  29.395 -12.738  0.00  0.00    +0.094 C 
ATOM     43  CG  PRO A   2      -1.879  30.762 -13.366  0.00  0.00    +0.024 C 
ATOM     44  CB  PRO A   2      -2.444  30.497 -14.728  0.00  0.00    +0.031 C 
ATOM     45  CA  PRO A   2      -3.460  29.363 -14.508  0.00  0.00    +0.152 C 
ATOM     46  O   LYS A   1      -4.510  27.060 -13.440  0.00  0.00    -0.273 OA
BRANCH  40  47
ATOM     47  CA  LYS A   1      -3.235  27.152 -11.422  0.00  0.00    +0.145 C 
BRANCH  47  48
ATOM     48  N   LYS A   1      -4.373  26.350 -11.005  0.00  0.00    -0.238 NA
ATOM     49  H   LYS A   1      -4.992  25.950 -11.739  0.00  0.00    +0.142 HD
ENDBRANCH  47  48
BRANCH  47  50
ATOM     50  CB  LYS A   1      -1.960  26.301 -11.480  0.00  0.00    +0.026 C 
BRANCH  50  51
ATOM     51  CG  LYS A   1      -1.992  25.222 -12.547  0.00  0.00    -0.000 C 
BRANCH  51  52
ATOM     52  CD  LYS A   1      -0.861  24.226 -12.389  0.00  0.00    -0.024 C 
BRANCH  52  53
ATOM     53  CE  LYS A   1      -1.040  23.045 -13.326  0.00  0.00    -0.086 C 
BRANCH  53  54
ATOM     54  NZ  LYS A   1       0.081  22.068 -13.212  0.00  0.00    +0.380 N 
ATOM     55  HZ1 LYS A   1       0.127  21.707 -12.238  0.00  0.00    -0.089 HD
ATOM     56  HZ2 LYS A   1       0.976  22.540 -13.450  0.00  0.00    -0.089 HD
ATOM     57  HZ3 LYS A   1      -0.081  21.278 -13.869  0.00  0.00    -0.089 HD
ENDBRANCH  53  54
ENDBRANCH  52  53
ENDBRANCH  51  52
ENDBRANCH  50  51
ENDBRANCH  47  50
ENDBRANCH  40  47
ENDBRANCH  36  45
ENDBRANCH  35  37
BRANCH  35  58
ATOM     58  CB  GLN A   3      -1.215  25.547 -16.583  0.00  0.00    +0.039 C 
BRANCH  58  59
ATOM     59  CG  GLN A   3       0.138  26.225 -16.799  0.00  0.00    +0.087 C 
BRANCH  59  60
ATOM     60  CD  GLN A   3       0.641  27.001 -15.579  0.00  0.00    +0.219 C 
ATOM     61  OE1 GLN A   3      -0.002  27.033 -14.526  0.00  0.00    -0.275 OA
ATOM     62  NE2 GLN A   3       1.794  27.643 -15.729  0.00  0.00    -0.329 N 
ATOM     63 HE21 GLN A   3       2.186  28.198 -14.942  0.00  0.00    +0.145 HD
ATOM     64 HE22 GLN A   3       2.305  27.590 -16.633  0.00  0.00    +0.145 HD
ENDBRANCH  59  60
ENDBRANCH  58  59
ENDBRANCH  35  58
ENDBRANCH  31  35
ENDBRANCH   1  32
BRANCH   1  65
ATOM     65  CB  ASN A   4      -5.690  23.717 -14.467  0.00  0.00    +0.114 C 
BRANCH  65  66
ATOM     66  CG  ASN A   4      -4.654  22.614 -14.473  0.00  0.00    +0.222 C 
ATOM     67  ND2 ASN A   4      -4.375  22.054 -13.304  0.00  0.00    -0.329 N 
ATOM     68 HD21 ASN A   4      -4.855  22.383 -12.442  0.00  0.00    +0.145 HD
ATOM     69 HD22 ASN A   4      -3.677  21.285 -13.249  0.00  0.00    +0.145 HD
ATOM     70  OD1 ASN A   4      -4.117  22.264 -15.523  0.00  0.00    -0.275 OA
ENDBRANCH  65  66
ENDBRANCH   1  65
TORSDOF 29
REMARK  Name = ../refined-set-2016/4bco/4bco_pocket.pdb
REMARK  228 active torsions:
REMARK  status: ('A' for Active; 'I' for Inactive)
REMARK    1  A    between atoms: _1  and  _3
REMARK    2  A    between atoms: _3  and  _4
REMARK    3  A    between atoms: _3  and  _6
REMARK    4  A    between atoms: _9  and  _11
REMARK    5  A    between atoms: _11  and  _12
REMARK    6  A    between atoms: _11  and  _14
REMARK    7  A    between atoms: _14  and  _15
REMARK    8  A    between atoms: _15  and  _16
REMARK    9  A    between atoms: _19  and  _21
REMARK   10  A    between atoms: _21  and  _22
REMARK   11  A    between atoms: _21  and  _24
REMARK   12  A    between atoms: _24  and  _25
REMARK   13  A    between atoms: _25  and  _26
REMARK   14  A    between atoms: _26  and  _27
REMARK   15  A    between atoms: _27  and  _28
REMARK   16  A    between atoms: _32  and  _34
REMARK   17  A    between atoms: _34  and  _35
REMARK   18  A    between atoms: _34  and  _37
REMARK   19  A    between atoms: _37  and  _38
REMARK   20  A    between atoms: _41  and  _43
REMARK   21  A    between atoms: _43  and  _44
REMARK   22  A    between atoms: _46  and  _48
REMARK   23  A    between atoms: _48  and  _49
REMARK   24  A    between atoms: _48  and  _51
REMARK   25  A    between atoms: _51  and  _52
REMARK   26  A    between atoms: _52  and  _53
REMARK   27  A    between atoms: _56  and  _58
REMARK   28  A    between atoms: _58  and  _59
REMARK   29  A    between atoms: _61  and  _63
REMARK   30  A    between atoms: _63  and  _64
REMARK   31  A    between atoms: _63  and  _66
REMARK   32  A    between atoms: _66  and  _67
REMARK   33  A    between atoms: _70  and  _72
REMARK   34  A    between atoms: _72  and  _73
REMARK   35  A    between atoms: _72  and  _75
REMARK   36  A    between atoms: _75  and  _76
REMARK   37  A    between atoms: _81  and  _82
REMARK   38  A    between atoms: _84  and  _86
REMARK   39  A    between atoms: _86  and  _87
REMARK   40  A    between atoms: _89  and  _91
REMARK   41  A    between atoms: _91  and  _92
REMARK   42  A    between atoms: _91  and  _94
REMARK   43  A    between atoms: _97  and  _99
REMARK   44  A    between atoms: _99  and  _100
REMARK   45  A    between atoms: _99  and  _102
REMARK   46  A    between atoms: _105  and  _107
REMARK   47  A    between atoms: _107  and  _108
REMARK   48  A    between atoms: _107  and  _110
REMARK   49  A    between atoms: _110  and  _111
REMARK   50  A    between atoms: _116  and  _117
REMARK   51  A    between atoms: _119  and  _121
REMARK   52  A    between atoms: _121  and  _122
REMARK   53  A    between atoms: _121  and  _124
REMARK   54  A    between atoms: _124  and  _125
REMARK   55  A    between atoms: _125  and  _126
REMARK   56  A    between atoms: _126  and  _127
REMARK   57  A    between atoms: _127  and  _128
REMARK   58  A    between atoms: _132  and  _134
REMARK   59  A    between atoms: _134  and  _135
REMARK   60  A    between atoms: _138  and  _140
REMARK   61  A    between atoms: _140  and  _141
REMARK   62  A    between atoms: _140  and  _143
REMARK   63  A    between atoms: _146  and  _148
REMARK   64  A    between atoms: _148  and  _149
REMARK   65  A    between atoms: _148  and  _151
REMARK   66  A    between atoms: _154  and  _156
REMARK   67  A    between atoms: _156  and  _157
REMARK   68  A    between atoms: _160  and  _162
REMARK   69  A    between atoms: _162  and  _163
REMARK   70  A    between atoms: _162  and  _165
REMARK   71  A    between atoms: _165  and  _166
REMARK   72  A    between atoms: _169  and  _171
REMARK   73  A    between atoms: _171  and  _172
REMARK   74  A    between atoms: _171  and  _174
REMARK   75  A    between atoms: _174  and  _175
REMARK   76  A    between atoms: _175  and  _176
REMARK   77  A    between atoms: _176  and  _177
REMARK   78  A    between atoms: _177  and  _178
REMARK   79  A    between atoms: _182  and  _184
REMARK   80  A    between atoms: _184  and  _185
REMARK   81  A    between atoms: _184  and  _187
REMARK   82  A    between atoms: _187  and  _188
REMARK   83  A    between atoms: _188  and  _189
REMARK   84  A    between atoms: _189  and  _190
REMARK   85  A    between atoms: _190  and  _191
REMARK   86  A    between atoms: _195  and  _197
REMARK   87  A    between atoms: _197  and  _198
REMARK   88  A    between atoms: _197  and  _200
REMARK   89  A    between atoms: _200  and  _201
REMARK   90  A    between atoms: _201  and  _202
REMARK   91  A    between atoms: _205  and  _207
REMARK   92  A    between atoms: _207  and  _208
REMARK   93  A    between atoms: _207  and  _210
REMARK   94  A    between atoms: _210  and  _211
REMARK   95  A    between atoms: _214  and  _216
REMARK   96  A    between atoms: _216  and  _217
REMARK   97  A    between atoms: _216  and  _219
REMARK   98  A    between atoms: _219  and  _220
REMARK   99  A    between atoms: _223  and  _225
REMARK  100  A    between atoms: _225  and  _226
REMARK  101  A    between atoms: _225  and  _228
REMARK  102  A    between atoms: _231  and  _233
REMARK  103  A    between atoms: _233  and  _234
REMARK  104  A    between atoms: _233  and  _236
REMARK  105  A    between atoms: _236  and  _237
REMARK  106  A    between atoms: _237  and  _238
REMARK  107  A    between atoms: _238  and  _239
REMARK  108  A    between atoms: _239  and  _240
REMARK  109  A    between atoms: _244  and  _246
REMARK  110  A    between atoms: _246  and  _247
REMARK  111  A    between atoms: _246  and  _249
REMARK  112  A    between atoms: _249  and  _250
REMARK  113  A    between atoms: _253  and  _255
REMARK  114  A    between atoms: _255  and  _256
REMARK  115  A    between atoms: _255  and  _258
REMARK  116  A    between atoms: _258  and  _259
REMARK  117  A    between atoms: _262  and  _264
REMARK  118  A    between atoms: _264  and  _265
REMARK  119  A    between atoms: _264  and  _267
REMARK  120  A    between atoms: _267  and  _268
REMARK  121  A    between atoms: _271  and  _273
REMARK  122  A    between atoms: _273  and  _274
REMARK  123  A    between atoms: _273  and  _276
REMARK  124  A    between atoms: _279  and  _281
REMARK  125  A    between atoms: _281  and  _282
REMARK  126  A    between atoms: _281  and  _284
REMARK  127  A    between atoms: _284  and  _285
REMARK  128  A    between atoms: _291  and  _293
REMARK  129  A    between atoms: _293  and  _294
REMARK  130  A    between atoms: _293  and  _296
REMARK  131  A    between atoms: _296  and  _297
REMARK  132  A    between atoms: _297  and  _298
REMARK  133  A    between atoms: _301  and  _303
REMARK  134  A    between atoms: _303  and  _304
REMARK  135  A    between atoms: _303  and  _306
REMARK  136  A    between atoms: _306  and  _307
REMARK  137  A    between atoms: _313  and  _315
REMARK  138  A    between atoms: _315  and  _316
REMARK  139  A    between atoms: _315  and  _318
REMARK  140  A    between atoms: _318  and  _319
REMARK  141  A    between atoms: _322  and  _324
REMARK  142  A    between atoms: _324  and  _325
REMARK  143  A    between atoms: _324  and  _327
REMARK  144  A    between atoms: _327  and  _328
REMARK  145  A    between atoms: _333  and  _335
REMARK  146  A    between atoms: _335  and  _336
REMARK  147  A    between atoms: _335  and  _338
REMARK  148  A    between atoms: _338  and  _339
REMARK  149  A    between atoms: _339  and  _340
REMARK  150  A    between atoms: _345  and  _347
REMARK  151  A    between atoms: _347  and  _348
REMARK  152  A    between atoms: _347  and  _350
REMARK  153  A    between atoms: _350  and  _351
REMARK  154  A    between atoms: _354  and  _356
REMARK  155  A    between atoms: _356  and  _357
REMARK  156  A    between atoms: _356  and  _359
REMARK  157  A    between atoms: _359  and  _360
REMARK  158  A    between atoms: _363  and  _365
REMARK  159  A    between atoms: _365  and  _366
REMARK  160  A    between atoms: _365  and  _368
REMARK  161  A    between atoms: _368  and  _369
REMARK  162  A    between atoms: _369  and  _370
REMARK  163  A    between atoms: _370  and  _371
REMARK  164  A    between atoms: _371  and  _372
REMARK  165  A    between atoms: _376  and  _378
REMARK  166  A    between atoms: _378  and  _379
REMARK  167  A    between atoms: _378  and  _381
REMARK  168  A    between atoms: _381  and  _382
REMARK  169  A    between atoms: _382  and  _383
REMARK  170  A    between atoms: _383  and  _384
REMARK  171  A    between atoms: _384  and  _385
REMARK  172  A    between atoms: _389  and  _391
REMARK  173  A    between atoms: _391  and  _392
REMARK  174  A    between atoms: _391  and  _394
REMARK  175  A    between atoms: _394  and  _395
REMARK  176  A    between atoms: _401  and  _403
REMARK  177  A    between atoms: _403  and  _404
REMARK  178  A    between atoms: _403  and  _406
REMARK  179  A    between atoms: _406  and  _407
REMARK  180  A    between atoms: _410  and  _412
REMARK  181  A    between atoms: _412  and  _413
REMARK  182  A    between atoms: _412  and  _415
REMARK  183  A    between atoms: _415  and  _416
REMARK  184  A    between atoms: _416  and  _417
REMARK  185  A    between atoms: _417  and  _418
REMARK  186  A    between atoms: _418  and  _419
REMARK  187  A    between atoms: _424  and  _425
REMARK  188  A    between atoms: _430  and  _432
REMARK  189  A    between atoms: _432  and  _433
REMARK  190  A    between atoms: _432  and  _435
REMARK  191  A    between atoms: _435  and  _436
REMARK  192  A    between atoms: _436  and  _437
REMARK  193  A    between atoms: _442  and  _444
REMARK  194  A    between atoms: _444  and  _445
REMARK  195  A    between atoms: _444  and  _447
REMARK  196  A    between atoms: _447  and  _448
REMARK  197  A    between atoms: _453  and  _455
REMARK  198  A    between atoms: _455  and  _456
REMARK  199  A    between atoms: _455  and  _458
REMARK  200  A    between atoms: _458  and  _459
REMARK  201  A    between atoms: _462  and  _464
REMARK  202  A    between atoms: _464  and  _465
REMARK  203  A    between atoms: _464  and  _467
REMARK  204  A    between atoms: _467  and  _468
REMARK  205  A    between atoms: _471  and  _473
REMARK  206  A    between atoms: _473  and  _474
REMARK  207  A    between atoms: _473  and  _476
REMARK  208  A    between atoms: _476  and  _477
REMARK  209  A    between atoms: _480  and  _482
REMARK  210  A    between atoms: _482  and  _483
REMARK  211  A    between atoms: _482  and  _485
REMARK  212  A    between atoms: _485  and  _486
REMARK  213  A    between atoms: _489  and  _491
REMARK  214  A    between atoms: _491  and  _492
REMARK  215  A    between atoms: _495  and  _497
REMARK  216  A    between atoms: _497  and  _498
REMARK  217  A    between atoms: _497  and  _500
REMARK  218  A    between atoms: _500  and  _501
REMARK  219  A    between atoms: _504  and  _506
REMARK  220  A    between atoms: _506  and  _507
REMARK  221  A    between atoms: _506  and  _509
REMARK  222  A    between atoms: _509  and  _510
REMARK  223  A    between atoms: _516  and  _518
REMARK  224  A    between atoms: _518  and  _519
REMARK  225  A    between atoms: _521  and  _523
REMARK  226  A    between atoms: _523  and  _524
REMARK  227  A    between atoms: _523  and  _526
REMARK  228  A    between atoms: _526  and  _527
REMARK                            x       y       z     vdW  Elec       q    Type
REMARK                         _______ _______ _______ _____ _____    ______ ____
ROOT
ATOM      1  CA  ASP A   3      -8.043  19.159 -15.570  0.00  0.00    +0.160 C 
ENDROOT
BRANCH   1   2
ATOM      2  C   ASP A   3      -8.318  18.749 -14.128  0.00  0.00    +0.241 C 
ATOM      3  O   ASP A   3      -7.692  19.250 -13.188  0.00  0.00    -0.273 OA
ATOM      4  N   PHE A   4      -9.254  17.817 -13.985  0.00  0.00    -0.297 N 
ATOM      5  H   PHE A   4      -9.711  17.442 -14.841  0.00  0.00    +0.150 HD
BRANCH   4   6
ATOM      6  CA  PHE A   4      -9.673  17.295 -12.696  0.00  0.00    +0.153 C 
BRANCH   6   7
ATOM      7  C   PHE A   4      -8.931  15.991 -12.386  0.00  0.00    +0.241 C 
ATOM      8  O   PHE A   4      -9.411  15.160 -11.621  0.00  0.00    -0.273 OA
ATOM      9  N   GLY A   5      -7.757  15.826 -12.988  0.00  0.00    -0.296 N 
ATOM     10  H   GLY A   5      -7.424  16.552 -13.654  0.00  0.00    +0.150 HD
BRANCH   9  11
ATOM     11  CA  GLY A   5      -6.924  14.657 -12.742  0.00  0.00    +0.163 C 
BRANCH  11  12
ATOM     12  C   GLY A   5      -6.473  14.491 -11.293  0.00  0.00    +0.229 C 
ATOM     13  O   GLY A   5      -6.229  13.368 -10.851  0.00  0.00    -0.286 OA
ENDBRANCH  11  12
ENDBRANCH   9  11
ENDBRANCH   6   7
BRANCH   6  14
ATOM     14  CB  PHE A   4     -11.196  17.087 -12.687  0.00  0.00    +0.055 C 
BRANCH  14  15
ATOM     15  CG  PHE A   4     -11.984  18.370 -12.454  0.00  0.00    -0.020 A 
ATOM     16  CD2 PHE A   4     -12.693  18.562 -11.276  0.00  0.00    -0.004 A 
ATOM     17  CE2 PHE A   4     -13.406  19.738 -11.049  0.00  0.00    -0.000 A 
ATOM     18  CZ  PHE A   4     -13.405  20.744 -12.002  0.00  0.00    -0.000 A 
ATOM     19  CE1 PHE A   4     -12.693  20.566 -13.192  0.00  0.00    -0.000 A 
ATOM     20  CD1 PHE A   4     -11.986  19.383 -13.406  0.00  0.00    -0.004 A 
ENDBRANCH  14  15
ENDBRANCH   6  14
ENDBRANCH   4   6
ENDBRANCH   1   2
BRANCH   1  23
ATOM     21  C   ALA A   2      -9.189  21.328 -15.520  0.00  0.00    +0.241 C 
ATOM     22  O   ALA A   2      -8.610  21.717 -14.498  0.00  0.00    -0.273 OA
ATOM     23  N   ASP A   3      -8.980  20.149 -16.085  0.00  0.00    -0.297 N 
ATOM     24  H   ASP A   3      -9.515  19.916 -16.946  0.00  0.00    +0.150 HD
BRANCH  21  25
ATOM     25  CA  ALA A   2     -10.216  22.202 -16.235  0.00  0.00    +0.149 C 
ATOM     26  CB  ALA A   2      -9.704  22.590 -17.628  0.00  0.00    +0.031 C 
BRANCH  25  28
ATOM     27  C   LEU A   1     -11.772  23.819 -15.283  0.00  0.00    +0.238 C 
ATOM     28  N   ALA A   2     -10.522  23.389 -15.451  0.00  0.00    -0.297 N 
ATOM     29  H   ALA A   2      -9.743  23.917 -15.009  0.00  0.00    +0.150 HD
ATOM     30  O   LEU A   1     -12.756  23.269 -15.792  0.00  0.00    -0.274 OA
BRANCH  27  31
ATOM     31  CA  LEU A   1     -11.945  25.052 -14.420  0.00  0.00    +0.145 C 
BRANCH  31  32
ATOM     32  N   LEU A   1     -12.846  25.987 -15.100  0.00  0.00    -0.238 NA
ATOM     33  H   LEU A   1     -13.812  26.113 -14.736  0.00  0.00    +0.142 HD
ENDBRANCH  31  32
BRANCH  31  34
ATOM     34  CB  LEU A   1     -12.496  24.630 -13.053  0.00  0.00    +0.026 C 
BRANCH  34  35
ATOM     35  CG  LEU A   1     -13.113  25.646 -12.085  0.00  0.00    +0.002 C 
ATOM     36  CD2 LEU A   1     -13.029  25.091 -10.675  0.00  0.00    +0.000 C 
ATOM     37  CD1 LEU A   1     -12.435  26.977 -12.149  0.00  0.00    +0.000 C 
ENDBRANCH  34  35
ENDBRANCH  31  34
ENDBRANCH  27  31
ENDBRANCH  25  28
ENDBRANCH  21  25
ENDBRANCH   1  23
BRANCH   1  38
ATOM     38  CB  ASP A   3      -6.588  19.591 -15.746  0.00  0.00    +0.143 C 
BRANCH  38  39
ATOM     39  CG  ASP A   3      -5.662  18.394 -15.870  0.00  0.00    +0.367 C 
ATOM     40  OD2 ASP A   3      -5.987  17.354 -15.251  0.00  0.00    -0.246 OA
ATOM     41  OD1 ASP A   3      -4.650  18.473 -16.602  0.00  0.00    -0.246 OA
ENDBRANCH  38  39
ENDBRANCH   1  38
TORSDOF 16
REMARK  Name = ../refined-set-2016/4bco/4bco_pocket.pdb
REMARK  228 active torsions:
REMARK  status: ('A' for Active; 'I' for Inactive)
REMARK    1  A    between atoms: _1  and  _3
REMARK    2  A    between atoms: _3  and  _4
REMARK    3  A    between atoms: _3  and  _6
REMARK    4  A    between atoms: _9  and  _11
REMARK    5  A    between atoms: _11  and  _12
REMARK    6  A    between atoms: _11  and  _14
REMARK    7  A    between atoms: _14  and  _15
REMARK    8  A    between atoms: _15  and  _16
REMARK    9  A    between atoms: _19  and  _21
REMARK   10  A    between atoms: _21  and  _22
REMARK   11  A    between atoms: _21  and  _24
REMARK   12  A    between atoms: _24  and  _25
REMARK   13  A    between atoms: _25  and  _26
REMARK   14  A    between atoms: _26  and  _27
REMARK   15  A    between atoms: _27  and  _28
REMARK   16  A    between atoms: _32  and  _34
REMARK   17  A    between atoms: _34  and  _35
REMARK   18  A    between atoms: _34  and  _37
REMARK   19  A    between atoms: _37  and  _38
REMARK   20  A    between atoms: _41  and  _43
REMARK   21  A    between atoms: _43  and  _44
REMARK   22  A    between atoms: _46  and  _48
REMARK   23  A    between atoms: _48  and  _49
REMARK   24  A    between atoms: _48  and  _51
REMARK   25  A    between atoms: _51  and  _52
REMARK   26  A    between atoms: _52  and  _53
REMARK   27  A    between atoms: _56  and  _58
REMARK   28  A    between atoms: _58  and  _59
REMARK   29  A    between atoms: _61  and  _63
REMARK   30  A    between atoms: _63  and  _64
REMARK   31  A    between atoms: _63  and  _66
REMARK   32  A    between atoms: _66  and  _67
REMARK   33  A    between atoms: _70  and  _72
REMARK   34  A    between atoms: _72  and  _73
REMARK   35  A    between atoms: _72  and  _75
REMARK   36  A    between atoms: _75  and  _76
REMARK   37  A    between atoms: _81  and  _82
REMARK   38  A    between atoms: _84  and  _86
REMARK   39  A    between atoms: _86  and  _87
REMARK   40  A    between atoms: _89  and  _91
REMARK   41  A    between atoms: _91  and  _92
REMARK   42  A    between atoms: _91  and  _94
REMARK   43  A    between atoms: _97  and  _99
REMARK   44  A    between atoms: _99  and  _100
REMARK   45  A    between atoms: _99  and  _102
REMARK   46  A    between atoms: _105  and  _107
REMARK   47  A    between atoms: _107  and  _108
REMARK   48  A    between atoms: _107  and  _110
REMARK   49  A    between atoms: _110  and  _111
REMARK   50  A    between atoms: _116  and  _117
REMARK   51  A    between atoms: _119  and  _121
REMARK   52  A    between atoms: _121  and  _122
REMARK   53  A    between atoms: _121  and  _124
REMARK   54  A    between atoms: _124  and  _125
REMARK   55  A    between atoms: _125  and  _126
REMARK   56  A    between atoms: _126  and  _127
REMARK   57  A    between atoms: _127  and  _128
REMARK   58  A    between atoms: _132  and  _134
REMARK   59  A    between atoms: _134  and  _135
REMARK   60  A    between atoms: _138  and  _140
REMARK   61  A    between atoms: _140  and  _141
REMARK   62  A    between atoms: _140  and  _143
REMARK   63  A    between atoms: _146  and  _148
REMARK   64  A    between atoms: _148  and  _149
REMARK   65  A    between atoms: _148  and  _151
REMARK   66  A    between atoms: _154  and  _156
REMARK   67  A    between atoms: _156  and  _157
REMARK   68  A    between atoms: _160  and  _162
REMARK   69  A    between atoms: _162  and  _163
REMARK   70  A    between atoms: _162  and  _165
REMARK   71  A    between atoms: _165  and  _166
REMARK   72  A    between atoms: _169  and  _171
REMARK   73  A    between atoms: _171  and  _172
REMARK   74  A    between atoms: _171  and  _174
REMARK   75  A    between atoms: _174  and  _175
REMARK   76  A    between atoms: _175  and  _176
REMARK   77  A    between atoms: _176  and  _177
REMARK   78  A    between atoms: _177  and  _178
REMARK   79  A    between atoms: _182  and  _184
REMARK   80  A    between atoms: _184  and  _185
REMARK   81  A    between atoms: _184  and  _187
REMARK   82  A    between atoms: _187  and  _188
REMARK   83  A    between atoms: _188  and  _189
REMARK   84  A    between atoms: _189  and  _190
REMARK   85  A    between atoms: _190  and  _191
REMARK   86  A    between atoms: _195  and  _197
REMARK   87  A    between atoms: _197  and  _198
REMARK   88  A    between atoms: _197  and  _200
REMARK   89  A    between atoms: _200  and  _201
REMARK   90  A    between atoms: _201  and  _202
REMARK   91  A    between atoms: _205  and  _207
REMARK   92  A    between atoms: _207  and  _208
REMARK   93  A    between atoms: _207  and  _210
REMARK   94  A    between atoms: _210  and  _211
REMARK   95  A    between atoms: _214  and  _216
REMARK   96  A    between atoms: _216  and  _217
REMARK   97  A    between atoms: _216  and  _219
REMARK   98  A    between atoms: _219  and  _220
REMARK   99  A    between atoms: _223  and  _225
REMARK  100  A    between atoms: _225  and  _226
REMARK  101  A    between atoms: _225  and  _228
REMARK  102  A    between atoms: _231  and  _233
REMARK  103  A    between atoms: _233  and  _234
REMARK  104  A    between atoms: _233  and  _236
REMARK  105  A    between atoms: _236  and  _237
REMARK  106  A    between atoms: _237  and  _238
REMARK  107  A    between atoms: _238  and  _239
REMARK  108  A    between atoms: _239  and  _240
REMARK  109  A    between atoms: _244  and  _246
REMARK  110  A    between atoms: _246  and  _247
REMARK  111  A    between atoms: _246  and  _249
REMARK  112  A    between atoms: _249  and  _250
REMARK  113  A    between atoms: _253  and  _255
REMARK  114  A    between atoms: _255  and  _256
REMARK  115  A    between atoms: _255  and  _258
REMARK  116  A    between atoms: _258  and  _259
REMARK  117  A    between atoms: _262  and  _264
REMARK  118  A    between atoms: _264  and  _265
REMARK  119  A    between atoms: _264  and  _267
REMARK  120  A    between atoms: _267  and  _268
REMARK  121  A    between atoms: _271  and  _273
REMARK  122  A    between atoms: _273  and  _274
REMARK  123  A    between atoms: _273  and  _276
REMARK  124  A    between atoms: _279  and  _281
REMARK  125  A    between atoms: _281  and  _282
REMARK  126  A    between atoms: _281  and  _284
REMARK  127  A    between atoms: _284  and  _285
REMARK  128  A    between atoms: _291  and  _293
REMARK  129  A    between atoms: _293  and  _294
REMARK  130  A    between atoms: _293  and  _296
REMARK  131  A    between atoms: _296  and  _297
REMARK  132  A    between atoms: _297  and  _298
REMARK  133  A    between atoms: _301  and  _303
REMARK  134  A    between atoms: _303  and  _304
REMARK  135  A    between atoms: _303  and  _306
REMARK  136  A    between atoms: _306  and  _307
REMARK  137  A    between atoms: _313  and  _315
REMARK  138  A    between atoms: _315  and  _316
REMARK  139  A    between atoms: _315  and  _318
REMARK  140  A    between atoms: _318  and  _319
REMARK  141  A    between atoms: _322  and  _324
REMARK  142  A    between atoms: _324  and  _325
REMARK  143  A    between atoms: _324  and  _327
REMARK  144  A    between atoms: _327  and  _328
REMARK  145  A    between atoms: _333  and  _335
REMARK  146  A    between atoms: _335  and  _336
REMARK  147  A    between atoms: _335  and  _338
REMARK  148  A    between atoms: _338  and  _339
REMARK  149  A    between atoms: _339  and  _340
REMARK  150  A    between atoms: _345  and  _347
REMARK  151  A    between atoms: _347  and  _348
REMARK  152  A    between atoms: _347  and  _350
REMARK  153  A    between atoms: _350  and  _351
REMARK  154  A    between atoms: _354  and  _356
REMARK  155  A    between atoms: _356  and  _357
REMARK  156  A    between atoms: _356  and  _359
REMARK  157  A    between atoms: _359  and  _360
REMARK  158  A    between atoms: _363  and  _365
REMARK  159  A    between atoms: _365  and  _366
REMARK  160  A    between atoms: _365  and  _368
REMARK  161  A    between atoms: _368  and  _369
REMARK  162  A    between atoms: _369  and  _370
REMARK  163  A    between atoms: _370  and  _371
REMARK  164  A    between atoms: _371  and  _372
REMARK  165  A    between atoms: _376  and  _378
REMARK  166  A    between atoms: _378  and  _379
REMARK  167  A    between atoms: _378  and  _381
REMARK  168  A    between atoms: _381  and  _382
REMARK  169  A    between atoms: _382  and  _383
REMARK  170  A    between atoms: _383  and  _384
REMARK  171  A    between atoms: _384  and  _385
REMARK  172  A    between atoms: _389  and  _391
REMARK  173  A    between atoms: _391  and  _392
REMARK  174  A    between atoms: _391  and  _394
REMARK  175  A    between atoms: _394  and  _395
REMARK  176  A    between atoms: _401  and  _403
REMARK  177  A    between atoms: _403  and  _404
REMARK  178  A    between atoms: _403  and  _406
REMARK  179  A    between atoms: _406  and  _407
REMARK  180  A    between atoms: _410  and  _412
REMARK  181  A    between atoms: _412  and  _413
REMARK  182  A    between atoms: _412  and  _415
REMARK  183  A    between atoms: _415  and  _416
REMARK  184  A    between atoms: _416  and  _417
REMARK  185  A    between atoms: _417  and  _418
REMARK  186  A    between atoms: _418  and  _419
REMARK  187  A    between atoms: _424  and  _425
REMARK  188  A    between atoms: _430  and  _432
REMARK  189  A    between atoms: _432  and  _433
REMARK  190  A    between atoms: _432  and  _435
REMARK  191  A    between atoms: _435  and  _436
REMARK  192  A    between atoms: _436  and  _437
REMARK  193  A    between atoms: _442  and  _444
REMARK  194  A    between atoms: _444  and  _445
REMARK  195  A    between atoms: _444  and  _447
REMARK  196  A    between atoms: _447  and  _448
REMARK  197  A    between atoms: _453  and  _455
REMARK  198  A    between atoms: _455  and  _456
REMARK  199  A    between atoms: _455  and  _458
REMARK  200  A    between atoms: _458  and  _459
REMARK  201  A    between atoms: _462  and  _464
REMARK  202  A    between atoms: _464  and  _465
REMARK  203  A    between atoms: _464  and  _467
REMARK  204  A    between atoms: _467  and  _468
REMARK  205  A    between atoms: _471  and  _473
REMARK  206  A    between atoms: _473  and  _474
REMARK  207  A    between atoms: _473  and  _476
REMARK  208  A    between atoms: _476  and  _477
REMARK  209  A    between atoms: _480  and  _482
REMARK  210  A    between atoms: _482  and  _483
REMARK  211  A    between atoms: _482  and  _485
REMARK  212  A    between atoms: _485  and  _486
REMARK  213  A    between atoms: _489  and  _491
REMARK  214  A    between atoms: _491  and  _492
REMARK  215  A    between atoms: _495  and  _497
REMARK  216  A    between atoms: _497  and  _498
REMARK  217  A    between atoms: _497  and  _500
REMARK  218  A    between atoms: _500  and  _501
REMARK  219  A    between atoms: _504  and  _506
REMARK  220  A    between atoms: _506  and  _507
REMARK  221  A    between atoms: _506  and  _509
REMARK  222  A    between atoms: _509  and  _510
REMARK  223  A    between atoms: _516  and  _518
REMARK  224  A    between atoms: _518  and  _519
REMARK  225  A    between atoms: _521  and  _523
REMARK  226  A    between atoms: _523  and  _524
REMARK  227  A    between atoms: _523  and  _526
REMARK  228  A    between atoms: _526  and  _527
REMARK                            x       y       z     vdW  Elec       q    Type
REMARK                         _______ _______ _______ _____ _____    ______ ____
ROOT
ATOM      1  CA  LEU A   1      -6.923  34.218 -28.904  0.00  0.00    +0.133 C 
ENDROOT
BRANCH   1   2
ATOM      2  N   LEU A   1      -7.459  35.462 -29.454  0.00  0.00    -0.239 NA
ATOM      3  H   LEU A   1      -8.446  35.498 -29.779  0.00  0.00    +0.142 HD
ENDBRANCH   1   2
BRANCH   1   4
ATOM      4  C   LEU A   1      -6.449  33.261 -30.000  0.00  0.00    +0.224 C 
ATOM      5  O   LEU A   1      -7.234  32.821 -30.842  0.00  0.00    -0.287 OA
ENDBRANCH   1   4
BRANCH   1   6
ATOM      6  CB  LEU A   1      -7.954  33.530 -28.004  0.00  0.00    +0.025 C 
BRANCH   6   7
ATOM      7  CG  LEU A   1      -8.513  34.362 -26.847  0.00  0.00    +0.002 C 
ATOM      8  CD2 LEU A   1      -9.446  33.521 -25.990  0.00  0.00    +0.000 C 
ATOM      9  CD1 LEU A   1      -7.391  34.941 -26.007  0.00  0.00    +0.000 C 
ENDBRANCH   6   7
ENDBRANCH   1   6
TORSDOF 4
REMARK  Name = ../refined-set-2016/4bco/4bco_pocket.pdb
REMARK  228 active torsions:
REMARK  status: ('A' for Active; 'I' for Inactive)
REMARK    1  A    between atoms: _1  and  _3
REMARK    2  A    between atoms: _3  and  _4
REMARK    3  A    between atoms: _3  and  _6
REMARK    4  A    between atoms: _9  and  _11
REMARK    5  A    between atoms: _11  and  _12
REMARK    6  A    between atoms: _11  and  _14
REMARK    7  A    between atoms: _14  and  _15
REMARK    8  A    between atoms: _15  and  _16
REMARK    9  A    between atoms: _19  and  _21
REMARK   10  A    between atoms: _21  and  _22
REMARK   11  A    between atoms: _21  and  _24
REMARK   12  A    between atoms: _24  and  _25
REMARK   13  A    between atoms: _25  and  _26
REMARK   14  A    between atoms: _26  and  _27
REMARK   15  A    between atoms: _27  and  _28
REMARK   16  A    between atoms: _32  and  _34
REMARK   17  A    between atoms: _34  and  _35
REMARK   18  A    between atoms: _34  and  _37
REMARK   19  A    between atoms: _37  and  _38
REMARK   20  A    between atoms: _41  and  _43
REMARK   21  A    between atoms: _43  and  _44
REMARK   22  A    between atoms: _46  and  _48
REMARK   23  A    between atoms: _48  and  _49
REMARK   24  A    between atoms: _48  and  _51
REMARK   25  A    between atoms: _51  and  _52
REMARK   26  A    between atoms: _52  and  _53
REMARK   27  A    between atoms: _56  and  _58
REMARK   28  A    between atoms: _58  and  _59
REMARK   29  A    between atoms: _61  and  _63
REMARK   30  A    between atoms: _63  and  _64
REMARK   31  A    between atoms: _63  and  _66
REMARK   32  A    between atoms: _66  and  _67
REMARK   33  A    between atoms: _70  and  _72
REMARK   34  A    between atoms: _72  and  _73
REMARK   35  A    between atoms: _72  and  _75
REMARK   36  A    between atoms: _75  and  _76
REMARK   37  A    between atoms: _81  and  _82
REMARK   38  A    between atoms: _84  and  _86
REMARK   39  A    between atoms: _86  and  _87
REMARK   40  A    between atoms: _89  and  _91
REMARK   41  A    between atoms: _91  and  _92
REMARK   42  A    between atoms: _91  and  _94
REMARK   43  A    between atoms: _97  and  _99
REMARK   44  A    between atoms: _99  and  _100
REMARK   45  A    between atoms: _99  and  _102
REMARK   46  A    between atoms: _105  and  _107
REMARK   47  A    between atoms: _107  and  _108
REMARK   48  A    between atoms: _107  and  _110
REMARK   49  A    between atoms: _110  and  _111
REMARK   50  A    between atoms: _116  and  _117
REMARK   51  A    between atoms: _119  and  _121
REMARK   52  A    between atoms: _121  and  _122
REMARK   53  A    between atoms: _121  and  _124
REMARK   54  A    between atoms: _124  and  _125
REMARK   55  A    between atoms: _125  and  _126
REMARK   56  A    between atoms: _126  and  _127
REMARK   57  A    between atoms: _127  and  _128
REMARK   58  A    between atoms: _132  and  _134
REMARK   59  A    between atoms: _134  and  _135
REMARK   60  A    between atoms: _138  and  _140
REMARK   61  A    between atoms: _140  and  _141
REMARK   62  A    between atoms: _140  and  _143
REMARK   63  A    between atoms: _146  and  _148
REMARK   64  A    between atoms: _148  and  _149
REMARK   65  A    between atoms: _148  and  _151
REMARK   66  A    between atoms: _154  and  _156
REMARK   67  A    between atoms: _156  and  _157
REMARK   68  A    between atoms: _160  and  _162
REMARK   69  A    between atoms: _162  and  _163
REMARK   70  A    between atoms: _162  and  _165
REMARK   71  A    between atoms: _165  and  _166
REMARK   72  A    between atoms: _169  and  _171
REMARK   73  A    between atoms: _171  and  _172
REMARK   74  A    between atoms: _171  and  _174
REMARK   75  A    between atoms: _174  and  _175
REMARK   76  A    between atoms: _175  and  _176
REMARK   77  A    between atoms: _176  and  _177
REMARK   78  A    between atoms: _177  and  _178
REMARK   79  A    between atoms: _182  and  _184
REMARK   80  A    between atoms: _184  and  _185
REMARK   81  A    between atoms: _184  and  _187
REMARK   82  A    between atoms: _187  and  _188
REMARK   83  A    between atoms: _188  and  _189
REMARK   84  A    between atoms: _189  and  _190
REMARK   85  A    between atoms: _190  and  _191
REMARK   86  A    between atoms: _195  and  _197
REMARK   87  A    between atoms: _197  and  _198
REMARK   88  A    between atoms: _197  and  _200
REMARK   89  A    between atoms: _200  and  _201
REMARK   90  A    between atoms: _201  and  _202
REMARK   91  A    between atoms: _205  and  _207
REMARK   92  A    between atoms: _207  and  _208
REMARK   93  A    between atoms: _207  and  _210
REMARK   94  A    between atoms: _210  and  _211
REMARK   95  A    between atoms: _214  and  _216
REMARK   96  A    between atoms: _216  and  _217
REMARK   97  A    between atoms: _216  and  _219
REMARK   98  A    between atoms: _219  and  _220
REMARK   99  A    between atoms: _223  and  _225
REMARK  100  A    between atoms: _225  and  _226
REMARK  101  A    between atoms: _225  and  _228
REMARK  102  A    between atoms: _231  and  _233
REMARK  103  A    between atoms: _233  and  _234
REMARK  104  A    between atoms: _233  and  _236
REMARK  105  A    between atoms: _236  and  _237
REMARK  106  A    between atoms: _237  and  _238
REMARK  107  A    between atoms: _238  and  _239
REMARK  108  A    between atoms: _239  and  _240
REMARK  109  A    between atoms: _244  and  _246
REMARK  110  A    between atoms: _246  and  _247
REMARK  111  A    between atoms: _246  and  _249
REMARK  112  A    between atoms: _249  and  _250
REMARK  113  A    between atoms: _253  and  _255
REMARK  114  A    between atoms: _255  and  _256
REMARK  115  A    between atoms: _255  and  _258
REMARK  116  A    between atoms: _258  and  _259
REMARK  117  A    between atoms: _262  and  _264
REMARK  118  A    between atoms: _264  and  _265
REMARK  119  A    between atoms: _264  and  _267
REMARK  120  A    between atoms: _267  and  _268
REMARK  121  A    between atoms: _271  and  _273
REMARK  122  A    between atoms: _273  and  _274
REMARK  123  A    between atoms: _273  and  _276
REMARK  124  A    between atoms: _279  and  _281
REMARK  125  A    between atoms: _281  and  _282
REMARK  126  A    between atoms: _281  and  _284
REMARK  127  A    between atoms: _284  and  _285
REMARK  128  A    between atoms: _291  and  _293
REMARK  129  A    between atoms: _293  and  _294
REMARK  130  A    between atoms: _293  and  _296
REMARK  131  A    between atoms: _296  and  _297
REMARK  132  A    between atoms: _297  and  _298
REMARK  133  A    between atoms: _301  and  _303
REMARK  134  A    between atoms: _303  and  _304
REMARK  135  A    between atoms: _303  and  _306
REMARK  136  A    between atoms: _306  and  _307
REMARK  137  A    between atoms: _313  and  _315
REMARK  138  A    between atoms: _315  and  _316
REMARK  139  A    between atoms: _315  and  _318
REMARK  140  A    between atoms: _318  and  _319
REMARK  141  A    between atoms: _322  and  _324
REMARK  142  A    between atoms: _324  and  _325
REMARK  143  A    between atoms: _324  and  _327
REMARK  144  A    between atoms: _327  and  _328
REMARK  145  A    between atoms: _333  and  _335
REMARK  146  A    between atoms: _335  and  _336
REMARK  147  A    between atoms: _335  and  _338
REMARK  148  A    between atoms: _338  and  _339
REMARK  149  A    between atoms: _339  and  _340
REMARK  150  A    between atoms: _345  and  _347
REMARK  151  A    between atoms: _347  and  _348
REMARK  152  A    between atoms: _347  and  _350
REMARK  153  A    between atoms: _350  and  _351
REMARK  154  A    between atoms: _354  and  _356
REMARK  155  A    between atoms: _356  and  _357
REMARK  156  A    between atoms: _356  and  _359
REMARK  157  A    between atoms: _359  and  _360
REMARK  158  A    between atoms: _363  and  _365
REMARK  159  A    between atoms: _365  and  _366
REMARK  160  A    between atoms: _365  and  _368
REMARK  161  A    between atoms: _368  and  _369
REMARK  162  A    between atoms: _369  and  _370
REMARK  163  A    between atoms: _370  and  _371
REMARK  164  A    between atoms: _371  and  _372
REMARK  165  A    between atoms: _376  and  _378
REMARK  166  A    between atoms: _378  and  _379
REMARK  167  A    between atoms: _378  and  _381
REMARK  168  A    between atoms: _381  and  _382
REMARK  169  A    between atoms: _382  and  _383
REMARK  170  A    between atoms: _383  and  _384
REMARK  171  A    between atoms: _384  and  _385
REMARK  172  A    between atoms: _389  and  _391
REMARK  173  A    between atoms: _391  and  _392
REMARK  174  A    between atoms: _391  and  _394
REMARK  175  A    between atoms: _394  and  _395
REMARK  176  A    between atoms: _401  and  _403
REMARK  177  A    between atoms: _403  and  _404
REMARK  178  A    between atoms: _403  and  _406
REMARK  179  A    between atoms: _406  and  _407
REMARK  180  A    between atoms: _410  and  _412
REMARK  181  A    between atoms: _412  and  _413
REMARK  182  A    between atoms: _412  and  _415
REMARK  183  A    between atoms: _415  and  _416
REMARK  184  A    between atoms: _416  and  _417
REMARK  185  A    between atoms: _417  and  _418
REMARK  186  A    between atoms: _418  and  _419
REMARK  187  A    between atoms: _424  and  _425
REMARK  188  A    between atoms: _430  and  _432
REMARK  189  A    between atoms: _432  and  _433
REMARK  190  A    between atoms: _432  and  _435
REMARK  191  A    between atoms: _435  and  _436
REMARK  192  A    between atoms: _436  and  _437
REMARK  193  A    between atoms: _442  and  _444
REMARK  194  A    between atoms: _444  and  _445
REMARK  195  A    between atoms: _444  and  _447
REMARK  196  A    between atoms: _447  and  _448
REMARK  197  A    between atoms: _453  and  _455
REMARK  198  A    between atoms: _455  and  _456
REMARK  199  A    between atoms: _455  and  _458
REMARK  200  A    between atoms: _458  and  _459
REMARK  201  A    between atoms: _462  and  _464
REMARK  202  A    between atoms: _464  and  _465
REMARK  203  A    between atoms: _464  and  _467
REMARK  204  A    between atoms: _467  and  _468
REMARK  205  A    between atoms: _471  and  _473
REMARK  206  A    between atoms: _473  and  _474
REMARK  207  A    between atoms: _473  and  _476
REMARK  208  A    between atoms: _476  and  _477
REMARK  209  A    between atoms: _480  and  _482
REMARK  210  A    between atoms: _482  and  _483
REMARK  211  A    between atoms: _482  and  _485
REMARK  212  A    between atoms: _485  and  _486
REMARK  213  A    between atoms: _489  and  _491
REMARK  214  A    between atoms: _491  and  _492
REMARK  215  A    between atoms: _495  and  _497
REMARK  216  A    between atoms: _497  and  _498
REMARK  217  A    between atoms: _497  and  _500
REMARK  218  A    between atoms: _500  and  _501
REMARK  219  A    between atoms: _504  and  _506
REMARK  220  A    between atoms: _506  and  _507
REMARK  221  A    between atoms: _506  and  _509
REMARK  222  A    between atoms: _509  and  _510
REMARK  223  A    between atoms: _516  and  _518
REMARK  224  A    between atoms: _518  and  _519
REMARK  225  A    between atoms: _521  and  _523
REMARK  226  A    between atoms: _523  and  _524
REMARK  227  A    between atoms: _523  and  _526
REMARK  228  A    between atoms: _526  and  _527
REMARK                            x       y       z     vdW  Elec       q    Type
REMARK                         _______ _______ _______ _____ _____    ______ ____
ROOT
ATOM      1  O   HOH     1      -5.217  14.805 -16.026  0.00  0.00    +0.000 OA
ENDROOT
TORSDOF 0
REMARK  Name = ../refined-set-2016/4bco/4bco_pocket.pdb
REMARK  228 active torsions:
REMARK  status: ('A' for Active; 'I' for Inactive)
REMARK    1  A    between atoms: _1  and  _3
REMARK    2  A    between atoms: _3  and  _4
REMARK    3  A    between atoms: _3  and  _6
REMARK    4  A    between atoms: _9  and  _11
REMARK    5  A    between atoms: _11  and  _12
REMARK    6  A    between atoms: _11  and  _14
REMARK    7  A    between atoms: _14  and  _15
REMARK    8  A    between atoms: _15  and  _16
REMARK    9  A    between atoms: _19  and  _21
REMARK   10  A    between atoms: _21  and  _22
REMARK   11  A    between atoms: _21  and  _24
REMARK   12  A    between atoms: _24  and  _25
REMARK   13  A    between atoms: _25  and  _26
REMARK   14  A    between atoms: _26  and  _27
REMARK   15  A    between atoms: _27  and  _28
REMARK   16  A    between atoms: _32  and  _34
REMARK   17  A    between atoms: _34  and  _35
REMARK   18  A    between atoms: _34  and  _37
REMARK   19  A    between atoms: _37  and  _38
REMARK   20  A    between atoms: _41  and  _43
REMARK   21  A    between atoms: _43  and  _44
REMARK   22  A    between atoms: _46  and  _48
REMARK   23  A    between atoms: _48  and  _49
REMARK   24  A    between atoms: _48  and  _51
REMARK   25  A    between atoms: _51  and  _52
REMARK   26  A    between atoms: _52  and  _53
REMARK   27  A    between atoms: _56  and  _58
REMARK   28  A    between atoms: _58  and  _59
REMARK   29  A    between atoms: _61  and  _63
REMARK   30  A    between atoms: _63  and  _64
REMARK   31  A    between atoms: _63  and  _66
REMARK   32  A    between atoms: _66  and  _67
REMARK   33  A    between atoms: _70  and  _72
REMARK   34  A    between atoms: _72  and  _73
REMARK   35  A    between atoms: _72  and  _75
REMARK   36  A    between atoms: _75  and  _76
REMARK   37  A    between atoms: _81  and  _82
REMARK   38  A    between atoms: _84  and  _86
REMARK   39  A    between atoms: _86  and  _87
REMARK   40  A    between atoms: _89  and  _91
REMARK   41  A    between atoms: _91  and  _92
REMARK   42  A    between atoms: _91  and  _94
REMARK   43  A    between atoms: _97  and  _99
REMARK   44  A    between atoms: _99  and  _100
REMARK   45  A    between atoms: _99  and  _102
REMARK   46  A    between atoms: _105  and  _107
REMARK   47  A    between atoms: _107  and  _108
REMARK   48  A    between atoms: _107  and  _110
REMARK   49  A    between atoms: _110  and  _111
REMARK   50  A    between atoms: _116  and  _117
REMARK   51  A    between atoms: _119  and  _121
REMARK   52  A    between atoms: _121  and  _122
REMARK   53  A    between atoms: _121  and  _124
REMARK   54  A    between atoms: _124  and  _125
REMARK   55  A    between atoms: _125  and  _126
REMARK   56  A    between atoms: _126  and  _127
REMARK   57  A    between atoms: _127  and  _128
REMARK   58  A    between atoms: _132  and  _134
REMARK   59  A    between atoms: _134  and  _135
REMARK   60  A    between atoms: _138  and  _140
REMARK   61  A    between atoms: _140  and  _141
REMARK   62  A    between atoms: _140  and  _143
REMARK   63  A    between atoms: _146  and  _148
REMARK   64  A    between atoms: _148  and  _149
REMARK   65  A    between atoms: _148  and  _151
REMARK   66  A    between atoms: _154  and  _156
REMARK   67  A    between atoms: _156  and  _157
REMARK   68  A    between atoms: _160  and  _162
REMARK   69  A    between atoms: _162  and  _163
REMARK   70  A    between atoms: _162  and  _165
REMARK   71  A    between atoms: _165  and  _166
REMARK   72  A    between atoms: _169  and  _171
REMARK   73  A    between atoms: _171  and  _172
REMARK   74  A    between atoms: _171  and  _174
REMARK   75  A    between atoms: _174  and  _175
REMARK   76  A    between atoms: _175  and  _176
REMARK   77  A    between atoms: _176  and  _177
REMARK   78  A    between atoms: _177  and  _178
REMARK   79  A    between atoms: _182  and  _184
REMARK   80  A    between atoms: _184  and  _185
REMARK   81  A    between atoms: _184  and  _187
REMARK   82  A    between atoms: _187  and  _188
REMARK   83  A    between atoms: _188  and  _189
REMARK   84  A    between atoms: _189  and  _190
REMARK   85  A    between atoms: _190  and  _191
REMARK   86  A    between atoms: _195  and  _197
REMARK   87  A    between atoms: _197  and  _198
REMARK   88  A    between atoms: _197  and  _200
REMARK   89  A    between atoms: _200  and  _201
REMARK   90  A    between atoms: _201  and  _202
REMARK   91  A    between atoms: _205  and  _207
REMARK   92  A    between atoms: _207  and  _208
REMARK   93  A    between atoms: _207  and  _210
REMARK   94  A    between atoms: _210  and  _211
REMARK   95  A    between atoms: _214  and  _216
REMARK   96  A    between atoms: _216  and  _217
REMARK   97  A    between atoms: _216  and  _219
REMARK   98  A    between atoms: _219  and  _220
REMARK   99  A    between atoms: _223  and  _225
REMARK  100  A    between atoms: _225  and  _226
REMARK  101  A    between atoms: _225  and  _228
REMARK  102  A    between atoms: _231  and  _233
REMARK  103  A    between atoms: _233  and  _234
REMARK  104  A    between atoms: _233  and  _236
REMARK  105  A    between atoms: _236  and  _237
REMARK  106  A    between atoms: _237  and  _238
REMARK  107  A    between atoms: _238  and  _239
REMARK  108  A    between atoms: _239  and  _240
REMARK  109  A    between atoms: _244  and  _246
REMARK  110  A    between atoms: _246  and  _247
REMARK  111  A    between atoms: _246  and  _249
REMARK  112  A    between atoms: _249  and  _250
REMARK  113  A    between atoms: _253  and  _255
REMARK  114  A    between atoms: _255  and  _256
REMARK  115  A    between atoms: _255  and  _258
REMARK  116  A    between atoms: _258  and  _259
REMARK  117  A    between atoms: _262  and  _264
REMARK  118  A    between atoms: _264  and  _265
REMARK  119  A    between atoms: _264  and  _267
REMARK  120  A    between atoms: _267  and  _268
REMARK  121  A    between atoms: _271  and  _273
REMARK  122  A    between atoms: _273  and  _274
REMARK  123  A    between atoms: _273  and  _276
REMARK  124  A    between atoms: _279  and  _281
REMARK  125  A    between atoms: _281  and  _282
REMARK  126  A    between atoms: _281  and  _284
REMARK  127  A    between atoms: _284  and  _285
REMARK  128  A    between atoms: _291  and  _293
REMARK  129  A    between atoms: _293  and  _294
REMARK  130  A    between atoms: _293  and  _296
REMARK  131  A    between atoms: _296  and  _297
REMARK  132  A    between atoms: _297  and  _298
REMARK  133  A    between atoms: _301  and  _303
REMARK  134  A    between atoms: _303  and  _304
REMARK  135  A    between atoms: _303  and  _306
REMARK  136  A    between atoms: _306  and  _307
REMARK  137  A    between atoms: _313  and  _315
REMARK  138  A    between atoms: _315  and  _316
REMARK  139  A    between atoms: _315  and  _318
REMARK  140  A    between atoms: _318  and  _319
REMARK  141  A    between atoms: _322  and  _324
REMARK  142  A    between atoms: _324  and  _325
REMARK  143  A    between atoms: _324  and  _327
REMARK  144  A    between atoms: _327  and  _328
REMARK  145  A    between atoms: _333  and  _335
REMARK  146  A    between atoms: _335  and  _336
REMARK  147  A    between atoms: _335  and  _338
REMARK  148  A    between atoms: _338  and  _339
REMARK  149  A    between atoms: _339  and  _340
REMARK  150  A    between atoms: _345  and  _347
REMARK  151  A    between atoms: _347  and  _348
REMARK  152  A    between atoms: _347  and  _350
REMARK  153  A    between atoms: _350  and  _351
REMARK  154  A    between atoms: _354  and  _356
REMARK  155  A    between atoms: _356  and  _357
REMARK  156  A    between atoms: _356  and  _359
REMARK  157  A    between atoms: _359  and  _360
REMARK  158  A    between atoms: _363  and  _365
REMARK  159  A    between atoms: _365  and  _366
REMARK  160  A    between atoms: _365  and  _368
REMARK  161  A    between atoms: _368  and  _369
REMARK  162  A    between atoms: _369  and  _370
REMARK  163  A    between atoms: _370  and  _371
REMARK  164  A    between atoms: _371  and  _372
REMARK  165  A    between atoms: _376  and  _378
REMARK  166  A    between atoms: _378  and  _379
REMARK  167  A    between atoms: _378  and  _381
REMARK  168  A    between atoms: _381  and  _382
REMARK  169  A    between atoms: _382  and  _383
REMARK  170  A    between atoms: _383  and  _384
REMARK  171  A    between atoms: _384  and  _385
REMARK  172  A    between atoms: _389  and  _391
REMARK  173  A    between atoms: _391  and  _392
REMARK  174  A    between atoms: _391  and  _394
REMARK  175  A    between atoms: _394  and  _395
REMARK  176  A    between atoms: _401  and  _403
REMARK  177  A    between atoms: _403  and  _404
REMARK  178  A    between atoms: _403  and  _406
REMARK  179  A    between atoms: _406  and  _407
REMARK  180  A    between atoms: _410  and  _412
REMARK  181  A    between atoms: _412  and  _413
REMARK  182  A    between atoms: _412  and  _415
REMARK  183  A    between atoms: _415  and  _416
REMARK  184  A    between atoms: _416  and  _417
REMARK  185  A    between atoms: _417  and  _418
REMARK  186  A    between atoms: _418  and  _419
REMARK  187  A    between atoms: _424  and  _425
REMARK  188  A    between atoms: _430  and  _432
REMARK  189  A    between atoms: _432  and  _433
REMARK  190  A    between atoms: _432  and  _435
REMARK  191  A    between atoms: _435  and  _436
REMARK  192  A    between atoms: _436  and  _437
REMARK  193  A    between atoms: _442  and  _444
REMARK  194  A    between atoms: _444  and  _445
REMARK  195  A    between atoms: _444  and  _447
REMARK  196  A    between atoms: _447  and  _448
REMARK  197  A    between atoms: _453  and  _455
REMARK  198  A    between atoms: _455  and  _456
REMARK  199  A    between atoms: _455  and  _458
REMARK  200  A    between atoms: _458  and  _459
REMARK  201  A    between atoms: _462  and  _464
REMARK  202  A    between atoms: _464  and  _465
REMARK  203  A    between atoms: _464  and  _467
REMARK  204  A    between atoms: _467  and  _468
REMARK  205  A    between atoms: _471  and  _473
REMARK  206  A    between atoms: _473  and  _474
REMARK  207  A    between atoms: _473  and  _476
REMARK  208  A    between atoms: _476  and  _477
REMARK  209  A    between atoms: _480  and  _482
REMARK  210  A    between atoms: _482  and  _483
REMARK  211  A    between atoms: _482  and  _485
REMARK  212  A    between atoms: _485  and  _486
REMARK  213  A    between atoms: _489  and  _491
REMARK  214  A    between atoms: _491  and  _492
REMARK  215  A    between atoms: _495  and  _497
REMARK  216  A    between atoms: _497  and  _498
REMARK  217  A    between atoms: _497  and  _500
REMARK  218  A    between atoms: _500  and  _501
REMARK  219  A    between atoms: _504  and  _506
REMARK  220  A    between atoms: _506  and  _507
REMARK  221  A    between atoms: _506  and  _509
REMARK  222  A    between atoms: _509  and  _510
REMARK  223  A    between atoms: _516  and  _518
REMARK  224  A    between atoms: _518  and  _519
REMARK  225  A    between atoms: _521  and  _523
REMARK  226  A    between atoms: _523  and  _524
REMARK  227  A    between atoms: _523  and  _526
REMARK  228  A    between atoms: _526  and  _527
REMARK                            x       y       z     vdW  Elec       q    Type
REMARK                         _______ _______ _______ _____ _____    ______ ____
ROOT
ATOM      1  O   HOH     1      -4.790  18.254 -12.615  0.00  0.00    +0.000 OA
ENDROOT
TORSDOF 0
REMARK  Name = ../refined-set-2016/4bco/4bco_pocket.pdb
REMARK  228 active torsions:
REMARK  status: ('A' for Active; 'I' for Inactive)
REMARK    1  A    between atoms: _1  and  _3
REMARK    2  A    between atoms: _3  and  _4
REMARK    3  A    between atoms: _3  and  _6
REMARK    4  A    between atoms: _9  and  _11
REMARK    5  A    between atoms: _11  and  _12
REMARK    6  A    between atoms: _11  and  _14
REMARK    7  A    between atoms: _14  and  _15
REMARK    8  A    between atoms: _15  and  _16
REMARK    9  A    between atoms: _19  and  _21
REMARK   10  A    between atoms: _21  and  _22
REMARK   11  A    between atoms: _21  and  _24
REMARK   12  A    between atoms: _24  and  _25
REMARK   13  A    between atoms: _25  and  _26
REMARK   14  A    between atoms: _26  and  _27
REMARK   15  A    between atoms: _27  and  _28
REMARK   16  A    between atoms: _32  and  _34
REMARK   17  A    between atoms: _34  and  _35
REMARK   18  A    between atoms: _34  and  _37
REMARK   19  A    between atoms: _37  and  _38
REMARK   20  A    between atoms: _41  and  _43
REMARK   21  A    between atoms: _43  and  _44
REMARK   22  A    between atoms: _46  and  _48
REMARK   23  A    between atoms: _48  and  _49
REMARK   24  A    between atoms: _48  and  _51
REMARK   25  A    between atoms: _51  and  _52
REMARK   26  A    between atoms: _52  and  _53
REMARK   27  A    between atoms: _56  and  _58
REMARK   28  A    between atoms: _58  and  _59
REMARK   29  A    between atoms: _61  and  _63
REMARK   30  A    between atoms: _63  and  _64
REMARK   31  A    between atoms: _63  and  _66
REMARK   32  A    between atoms: _66  and  _67
REMARK   33  A    between atoms: _70  and  _72
REMARK   34  A    between atoms: _72  and  _73
REMARK   35  A    between atoms: _72  and  _75
REMARK   36  A    between atoms: _75  and  _76
REMARK   37  A    between atoms: _81  and  _82
REMARK   38  A    between atoms: _84  and  _86
REMARK   39  A    between atoms: _86  and  _87
REMARK   40  A    between atoms: _89  and  _91
REMARK   41  A    between atoms: _91  and  _92
REMARK   42  A    between atoms: _91  and  _94
REMARK   43  A    between atoms: _97  and  _99
REMARK   44  A    between atoms: _99  and  _100
REMARK   45  A    between atoms: _99  and  _102
REMARK   46  A    between atoms: _105  and  _107
REMARK   47  A    between atoms: _107  and  _108
REMARK   48  A    between atoms: _107  and  _110
REMARK   49  A    between atoms: _110  and  _111
REMARK   50  A    between atoms: _116  and  _117
REMARK   51  A    between atoms: _119  and  _121
REMARK   52  A    between atoms: _121  and  _122
REMARK   53  A    between atoms: _121  and  _124
REMARK   54  A    between atoms: _124  and  _125
REMARK   55  A    between atoms: _125  and  _126
REMARK   56  A    between atoms: _126  and  _127
REMARK   57  A    between atoms: _127  and  _128
REMARK   58  A    between atoms: _132  and  _134
REMARK   59  A    between atoms: _134  and  _135
REMARK   60  A    between atoms: _138  and  _140
REMARK   61  A    between atoms: _140  and  _141
REMARK   62  A    between atoms: _140  and  _143
REMARK   63  A    between atoms: _146  and  _148
REMARK   64  A    between atoms: _148  and  _149
REMARK   65  A    between atoms: _148  and  _151
REMARK   66  A    between atoms: _154  and  _156
REMARK   67  A    between atoms: _156  and  _157
REMARK   68  A    between atoms: _160  and  _162
REMARK   69  A    between atoms: _162  and  _163
REMARK   70  A    between atoms: _162  and  _165
REMARK   71  A    between atoms: _165  and  _166
REMARK   72  A    between atoms: _169  and  _171
REMARK   73  A    between atoms: _171  and  _172
REMARK   74  A    between atoms: _171  and  _174
REMARK   75  A    between atoms: _174  and  _175
REMARK   76  A    between atoms: _175  and  _176
REMARK   77  A    between atoms: _176  and  _177
REMARK   78  A    between atoms: _177  and  _178
REMARK   79  A    between atoms: _182  and  _184
REMARK   80  A    between atoms: _184  and  _185
REMARK   81  A    between atoms: _184  and  _187
REMARK   82  A    between atoms: _187  and  _188
REMARK   83  A    between atoms: _188  and  _189
REMARK   84  A    between atoms: _189  and  _190
REMARK   85  A    between atoms: _190  and  _191
REMARK   86  A    between atoms: _195  and  _197
REMARK   87  A    between atoms: _197  and  _198
REMARK   88  A    between atoms: _197  and  _200
REMARK   89  A    between atoms: _200  and  _201
REMARK   90  A    between atoms: _201  and  _202
REMARK   91  A    between atoms: _205  and  _207
REMARK   92  A    between atoms: _207  and  _208
REMARK   93  A    between atoms: _207  and  _210
REMARK   94  A    between atoms: _210  and  _211
REMARK   95  A    between atoms: _214  and  _216
REMARK   96  A    between atoms: _216  and  _217
REMARK   97  A    between atoms: _216  and  _219
REMARK   98  A    between atoms: _219  and  _220
REMARK   99  A    between atoms: _223  and  _225
REMARK  100  A    between atoms: _225  and  _226
REMARK  101  A    between atoms: _225  and  _228
REMARK  102  A    between atoms: _231  and  _233
REMARK  103  A    between atoms: _233  and  _234
REMARK  104  A    between atoms: _233  and  _236
REMARK  105  A    between atoms: _236  and  _237
REMARK  106  A    between atoms: _237  and  _238
REMARK  107  A    between atoms: _238  and  _239
REMARK  108  A    between atoms: _239  and  _240
REMARK  109  A    between atoms: _244  and  _246
REMARK  110  A    between atoms: _246  and  _247
REMARK  111  A    between atoms: _246  and  _249
REMARK  112  A    between atoms: _249  and  _250
REMARK  113  A    between atoms: _253  and  _255
REMARK  114  A    between atoms: _255  and  _256
REMARK  115  A    between atoms: _255  and  _258
REMARK  116  A    between atoms: _258  and  _259
REMARK  117  A    between atoms: _262  and  _264
REMARK  118  A    between atoms: _264  and  _265
REMARK  119  A    between atoms: _264  and  _267
REMARK  120  A    between atoms: _267  and  _268
REMARK  121  A    between atoms: _271  and  _273
REMARK  122  A    between atoms: _273  and  _274
REMARK  123  A    between atoms: _273  and  _276
REMARK  124  A    between atoms: _279  and  _281
REMARK  125  A    between atoms: _281  and  _282
REMARK  126  A    between atoms: _281  and  _284
REMARK  127  A    between atoms: _284  and  _285
REMARK  128  A    between atoms: _291  and  _293
REMARK  129  A    between atoms: _293  and  _294
REMARK  130  A    between atoms: _293  and  _296
REMARK  131  A    between atoms: _296  and  _297
REMARK  132  A    between atoms: _297  and  _298
REMARK  133  A    between atoms: _301  and  _303
REMARK  134  A    between atoms: _303  and  _304
REMARK  135  A    between atoms: _303  and  _306
REMARK  136  A    between atoms: _306  and  _307
REMARK  137  A    between atoms: _313  and  _315
REMARK  138  A    between atoms: _315  and  _316
REMARK  139  A    between atoms: _315  and  _318
REMARK  140  A    between atoms: _318  and  _319
REMARK  141  A    between atoms: _322  and  _324
REMARK  142  A    between atoms: _324  and  _325
REMARK  143  A    between atoms: _324  and  _327
REMARK  144  A    between atoms: _327  and  _328
REMARK  145  A    between atoms: _333  and  _335
REMARK  146  A    between atoms: _335  and  _336
REMARK  147  A    between atoms: _335  and  _338
REMARK  148  A    between atoms: _338  and  _339
REMARK  149  A    between atoms: _339  and  _340
REMARK  150  A    between atoms: _345  and  _347
REMARK  151  A    between atoms: _347  and  _348
REMARK  152  A    between atoms: _347  and  _350
REMARK  153  A    between atoms: _350  and  _351
REMARK  154  A    between atoms: _354  and  _356
REMARK  155  A    between atoms: _356  and  _357
REMARK  156  A    between atoms: _356  and  _359
REMARK  157  A    between atoms: _359  and  _360
REMARK  158  A    between atoms: _363  and  _365
REMARK  159  A    between atoms: _365  and  _366
REMARK  160  A    between atoms: _365  and  _368
REMARK  161  A    between atoms: _368  and  _369
REMARK  162  A    between atoms: _369  and  _370
REMARK  163  A    between atoms: _370  and  _371
REMARK  164  A    between atoms: _371  and  _372
REMARK  165  A    between atoms: _376  and  _378
REMARK  166  A    between atoms: _378  and  _379
REMARK  167  A    between atoms: _378  and  _381
REMARK  168  A    between atoms: _381  and  _382
REMARK  169  A    between atoms: _382  and  _383
REMARK  170  A    between atoms: _383  and  _384
REMARK  171  A    between atoms: _384  and  _385
REMARK  172  A    between atoms: _389  and  _391
REMARK  173  A    between atoms: _391  and  _392
REMARK  174  A    between atoms: _391  and  _394
REMARK  175  A    between atoms: _394  and  _395
REMARK  176  A    between atoms: _401  and  _403
REMARK  177  A    between atoms: _403  and  _404
REMARK  178  A    between atoms: _403  and  _406
REMARK  179  A    between atoms: _406  and  _407
REMARK  180  A    between atoms: _410  and  _412
REMARK  181  A    between atoms: _412  and  _413
REMARK  182  A    between atoms: _412  and  _415
REMARK  183  A    between atoms: _415  and  _416
REMARK  184  A    between atoms: _416  and  _417
REMARK  185  A    between atoms: _417  and  _418
REMARK  186  A    between atoms: _418  and  _419
REMARK  187  A    between atoms: _424  and  _425
REMARK  188  A    between atoms: _430  and  _432
REMARK  189  A    between atoms: _432  and  _433
REMARK  190  A    between atoms: _432  and  _435
REMARK  191  A    between atoms: _435  and  _436
REMARK  192  A    between atoms: _436  and  _437
REMARK  193  A    between atoms: _442  and  _444
REMARK  194  A    between atoms: _444  and  _445
REMARK  195  A    between atoms: _444  and  _447
REMARK  196  A    between atoms: _447  and  _448
REMARK  197  A    between atoms: _453  and  _455
REMARK  198  A    between atoms: _455  and  _456
REMARK  199  A    between atoms: _455  and  _458
REMARK  200  A    between atoms: _458  and  _459
REMARK  201  A    between atoms: _462  and  _464
REMARK  202  A    between atoms: _464  and  _465
REMARK  203  A    between atoms: _464  and  _467
REMARK  204  A    between atoms: _467  and  _468
REMARK  205  A    between atoms: _471  and  _473
REMARK  206  A    between atoms: _473  and  _474
REMARK  207  A    between atoms: _473  and  _476
REMARK  208  A    between atoms: _476  and  _477
REMARK  209  A    between atoms: _480  and  _482
REMARK  210  A    between atoms: _482  and  _483
REMARK  211  A    between atoms: _482  and  _485
REMARK  212  A    between atoms: _485  and  _486
REMARK  213  A    between atoms: _489  and  _491
REMARK  214  A    between atoms: _491  and  _492
REMARK  215  A    between atoms: _495  and  _497
REMARK  216  A    between atoms: _497  and  _498
REMARK  217  A    between atoms: _497  and  _500
REMARK  218  A    between atoms: _500  and  _501
REMARK  219  A    between atoms: _504  and  _506
REMARK  220  A    between atoms: _506  and  _507
REMARK  221  A    between atoms: _506  and  _509
REMARK  222  A    between atoms: _509  and  _510
REMARK  223  A    between atoms: _516  and  _518
REMARK  224  A    between atoms: _518  and  _519
REMARK  225  A    between atoms: _521  and  _523
REMARK  226  A    between atoms: _523  and  _524
REMARK  227  A    between atoms: _523  and  _526
REMARK  228  A    between atoms: _526  and  _527
REMARK                            x       y       z     vdW  Elec       q    Type
REMARK                         _______ _______ _______ _____ _____    ______ ____
ROOT
ATOM      1  O   HOH     1      -2.361  20.487 -15.851  0.00  0.00    +0.000 OA
ENDROOT
TORSDOF 0
REMARK  Name = ../refined-set-2016/4bco/4bco_pocket.pdb
REMARK  228 active torsions:
REMARK  status: ('A' for Active; 'I' for Inactive)
REMARK    1  A    between atoms: _1  and  _3
REMARK    2  A    between atoms: _3  and  _4
REMARK    3  A    between atoms: _3  and  _6
REMARK    4  A    between atoms: _9  and  _11
REMARK    5  A    between atoms: _11  and  _12
REMARK    6  A    between atoms: _11  and  _14
REMARK    7  A    between atoms: _14  and  _15
REMARK    8  A    between atoms: _15  and  _16
REMARK    9  A    between atoms: _19  and  _21
REMARK   10  A    between atoms: _21  and  _22
REMARK   11  A    between atoms: _21  and  _24
REMARK   12  A    between atoms: _24  and  _25
REMARK   13  A    between atoms: _25  and  _26
REMARK   14  A    between atoms: _26  and  _27
REMARK   15  A    between atoms: _27  and  _28
REMARK   16  A    between atoms: _32  and  _34
REMARK   17  A    between atoms: _34  and  _35
REMARK   18  A    between atoms: _34  and  _37
REMARK   19  A    between atoms: _37  and  _38
REMARK   20  A    between atoms: _41  and  _43
REMARK   21  A    between atoms: _43  and  _44
REMARK   22  A    between atoms: _46  and  _48
REMARK   23  A    between atoms: _48  and  _49
REMARK   24  A    between atoms: _48  and  _51
REMARK   25  A    between atoms: _51  and  _52
REMARK   26  A    between atoms: _52  and  _53
REMARK   27  A    between atoms: _56  and  _58
REMARK   28  A    between atoms: _58  and  _59
REMARK   29  A    between atoms: _61  and  _63
REMARK   30  A    between atoms: _63  and  _64
REMARK   31  A    between atoms: _63  and  _66
REMARK   32  A    between atoms: _66  and  _67
REMARK   33  A    between atoms: _70  and  _72
REMARK   34  A    between atoms: _72  and  _73
REMARK   35  A    between atoms: _72  and  _75
REMARK   36  A    between atoms: _75  and  _76
REMARK   37  A    between atoms: _81  and  _82
REMARK   38  A    between atoms: _84  and  _86
REMARK   39  A    between atoms: _86  and  _87
REMARK   40  A    between atoms: _89  and  _91
REMARK   41  A    between atoms: _91  and  _92
REMARK   42  A    between atoms: _91  and  _94
REMARK   43  A    between atoms: _97  and  _99
REMARK   44  A    between atoms: _99  and  _100
REMARK   45  A    between atoms: _99  and  _102
REMARK   46  A    between atoms: _105  and  _107
REMARK   47  A    between atoms: _107  and  _108
REMARK   48  A    between atoms: _107  and  _110
REMARK   49  A    between atoms: _110  and  _111
REMARK   50  A    between atoms: _116  and  _117
REMARK   51  A    between atoms: _119  and  _121
REMARK   52  A    between atoms: _121  and  _122
REMARK   53  A    between atoms: _121  and  _124
REMARK   54  A    between atoms: _124  and  _125
REMARK   55  A    between atoms: _125  and  _126
REMARK   56  A    between atoms: _126  and  _127
REMARK   57  A    between atoms: _127  and  _128
REMARK   58  A    between atoms: _132  and  _134
REMARK   59  A    between atoms: _134  and  _135
REMARK   60  A    between atoms: _138  and  _140
REMARK   61  A    between atoms: _140  and  _141
REMARK   62  A    between atoms: _140  and  _143
REMARK   63  A    between atoms: _146  and  _148
REMARK   64  A    between atoms: _148  and  _149
REMARK   65  A    between atoms: _148  and  _151
REMARK   66  A    between atoms: _154  and  _156
REMARK   67  A    between atoms: _156  and  _157
REMARK   68  A    between atoms: _160  and  _162
REMARK   69  A    between atoms: _162  and  _163
REMARK   70  A    between atoms: _162  and  _165
REMARK   71  A    between atoms: _165  and  _166
REMARK   72  A    between atoms: _169  and  _171
REMARK   73  A    between atoms: _171  and  _172
REMARK   74  A    between atoms: _171  and  _174
REMARK   75  A    between atoms: _174  and  _175
REMARK   76  A    between atoms: _175  and  _176
REMARK   77  A    between atoms: _176  and  _177
REMARK   78  A    between atoms: _177  and  _178
REMARK   79  A    between atoms: _182  and  _184
REMARK   80  A    between atoms: _184  and  _185
REMARK   81  A    between atoms: _184  and  _187
REMARK   82  A    between atoms: _187  and  _188
REMARK   83  A    between atoms: _188  and  _189
REMARK   84  A    between atoms: _189  and  _190
REMARK   85  A    between atoms: _190  and  _191
REMARK   86  A    between atoms: _195  and  _197
REMARK   87  A    between atoms: _197  and  _198
REMARK   88  A    between atoms: _197  and  _200
REMARK   89  A    between atoms: _200  and  _201
REMARK   90  A    between atoms: _201  and  _202
REMARK   91  A    between atoms: _205  and  _207
REMARK   92  A    between atoms: _207  and  _208
REMARK   93  A    between atoms: _207  and  _210
REMARK   94  A    between atoms: _210  and  _211
REMARK   95  A    between atoms: _214  and  _216
REMARK   96  A    between atoms: _216  and  _217
REMARK   97  A    between atoms: _216  and  _219
REMARK   98  A    between atoms: _219  and  _220
REMARK   99  A    between atoms: _223  and  _225
REMARK  100  A    between atoms: _225  and  _226
REMARK  101  A    between atoms: _225  and  _228
REMARK  102  A    between atoms: _231  and  _233
REMARK  103  A    between atoms: _233  and  _234
REMARK  104  A    between atoms: _233  and  _236
REMARK  105  A    between atoms: _236  and  _237
REMARK  106  A    between atoms: _237  and  _238
REMARK  107  A    between atoms: _238  and  _239
REMARK  108  A    between atoms: _239  and  _240
REMARK  109  A    between atoms: _244  and  _246
REMARK  110  A    between atoms: _246  and  _247
REMARK  111  A    between atoms: _246  and  _249
REMARK  112  A    between atoms: _249  and  _250
REMARK  113  A    between atoms: _253  and  _255
REMARK  114  A    between atoms: _255  and  _256
REMARK  115  A    between atoms: _255  and  _258
REMARK  116  A    between atoms: _258  and  _259
REMARK  117  A    between atoms: _262  and  _264
REMARK  118  A    between atoms: _264  and  _265
REMARK  119  A    between atoms: _264  and  _267
REMARK  120  A    between atoms: _267  and  _268
REMARK  121  A    between atoms: _271  and  _273
REMARK  122  A    between atoms: _273  and  _274
REMARK  123  A    between atoms: _273  and  _276
REMARK  124  A    between atoms: _279  and  _281
REMARK  125  A    between atoms: _281  and  _282
REMARK  126  A    between atoms: _281  and  _284
REMARK  127  A    between atoms: _284  and  _285
REMARK  128  A    between atoms: _291  and  _293
REMARK  129  A    between atoms: _293  and  _294
REMARK  130  A    between atoms: _293  and  _296
REMARK  131  A    between atoms: _296  and  _297
REMARK  132  A    between atoms: _297  and  _298
REMARK  133  A    between atoms: _301  and  _303
REMARK  134  A    between atoms: _303  and  _304
REMARK  135  A    between atoms: _303  and  _306
REMARK  136  A    between atoms: _306  and  _307
REMARK  137  A    between atoms: _313  and  _315
REMARK  138  A    between atoms: _315  and  _316
REMARK  139  A    between atoms: _315  and  _318
REMARK  140  A    between atoms: _318  and  _319
REMARK  141  A    between atoms: _322  and  _324
REMARK  142  A    between atoms: _324  and  _325
REMARK  143  A    between atoms: _324  and  _327
REMARK  144  A    between atoms: _327  and  _328
REMARK  145  A    between atoms: _333  and  _335
REMARK  146  A    between atoms: _335  and  _336
REMARK  147  A    between atoms: _335  and  _338
REMARK  148  A    between atoms: _338  and  _339
REMARK  149  A    between atoms: _339  and  _340
REMARK  150  A    between atoms: _345  and  _347
REMARK  151  A    between atoms: _347  and  _348
REMARK  152  A    between atoms: _347  and  _350
REMARK  153  A    between atoms: _350  and  _351
REMARK  154  A    between atoms: _354  and  _356
REMARK  155  A    between atoms: _356  and  _357
REMARK  156  A    between atoms: _356  and  _359
REMARK  157  A    between atoms: _359  and  _360
REMARK  158  A    between atoms: _363  and  _365
REMARK  159  A    between atoms: _365  and  _366
REMARK  160  A    between atoms: _365  and  _368
REMARK  161  A    between atoms: _368  and  _369
REMARK  162  A    between atoms: _369  and  _370
REMARK  163  A    between atoms: _370  and  _371
REMARK  164  A    between atoms: _371  and  _372
REMARK  165  A    between atoms: _376  and  _378
REMARK  166  A    between atoms: _378  and  _379
REMARK  167  A    between atoms: _378  and  _381
REMARK  168  A    between atoms: _381  and  _382
REMARK  169  A    between atoms: _382  and  _383
REMARK  170  A    between atoms: _383  and  _384
REMARK  171  A    between atoms: _384  and  _385
REMARK  172  A    between atoms: _389  and  _391
REMARK  173  A    between atoms: _391  and  _392
REMARK  174  A    between atoms: _391  and  _394
REMARK  175  A    between atoms: _394  and  _395
REMARK  176  A    between atoms: _401  and  _403
REMARK  177  A    between atoms: _403  and  _404
REMARK  178  A    between atoms: _403  and  _406
REMARK  179  A    between atoms: _406  and  _407
REMARK  180  A    between atoms: _410  and  _412
REMARK  181  A    between atoms: _412  and  _413
REMARK  182  A    between atoms: _412  and  _415
REMARK  183  A    between atoms: _415  and  _416
REMARK  184  A    between atoms: _416  and  _417
REMARK  185  A    between atoms: _417  and  _418
REMARK  186  A    between atoms: _418  and  _419
REMARK  187  A    between atoms: _424  and  _425
REMARK  188  A    between atoms: _430  and  _432
REMARK  189  A    between atoms: _432  and  _433
REMARK  190  A    between atoms: _432  and  _435
REMARK  191  A    between atoms: _435  and  _436
REMARK  192  A    between atoms: _436  and  _437
REMARK  193  A    between atoms: _442  and  _444
REMARK  194  A    between atoms: _444  and  _445
REMARK  195  A    between atoms: _444  and  _447
REMARK  196  A    between atoms: _447  and  _448
REMARK  197  A    between atoms: _453  and  _455
REMARK  198  A    between atoms: _455  and  _456
REMARK  199  A    between atoms: _455  and  _458
REMARK  200  A    between atoms: _458  and  _459
REMARK  201  A    between atoms: _462  and  _464
REMARK  202  A    between atoms: _464  and  _465
REMARK  203  A    between atoms: _464  and  _467
REMARK  204  A    between atoms: _467  and  _468
REMARK  205  A    between atoms: _471  and  _473
REMARK  206  A    between atoms: _473  and  _474
REMARK  207  A    between atoms: _473  and  _476
REMARK  208  A    between atoms: _476  and  _477
REMARK  209  A    between atoms: _480  and  _482
REMARK  210  A    between atoms: _482  and  _483
REMARK  211  A    between atoms: _482  and  _485
REMARK  212  A    between atoms: _485  and  _486
REMARK  213  A    between atoms: _489  and  _491
REMARK  214  A    between atoms: _491  and  _492
REMARK  215  A    between atoms: _495  and  _497
REMARK  216  A    between atoms: _497  and  _498
REMARK  217  A    between atoms: _497  and  _500
REMARK  218  A    between atoms: _500  and  _501
REMARK  219  A    between atoms: _504  and  _506
REMARK  220  A    between atoms: _506  and  _507
REMARK  221  A    between atoms: _506  and  _509
REMARK  222  A    between atoms: _509  and  _510
REMARK  223  A    between atoms: _516  and  _518
REMARK  224  A    between atoms: _518  and  _519
REMARK  225  A    between atoms: _521  and  _523
REMARK  226  A    between atoms: _523  and  _524
REMARK  227  A    between atoms: _523  and  _526
REMARK  228  A    between atoms: _526  and  _527
REMARK                            x       y       z     vdW  Elec       q    Type
REMARK                         _______ _______ _______ _____ _____    ______ ____
ROOT
ATOM      1  O   HOH     1     -10.931  26.110 -34.492  0.00  0.00    +0.000 OA
ENDROOT
TORSDOF 0
REMARK  Name = ../refined-set-2016/4bco/4bco_pocket.pdb
REMARK  228 active torsions:
REMARK  status: ('A' for Active; 'I' for Inactive)
REMARK    1  A    between atoms: _1  and  _3
REMARK    2  A    between atoms: _3  and  _4
REMARK    3  A    between atoms: _3  and  _6
REMARK    4  A    between atoms: _9  and  _11
REMARK    5  A    between atoms: _11  and  _12
REMARK    6  A    between atoms: _11  and  _14
REMARK    7  A    between atoms: _14  and  _15
REMARK    8  A    between atoms: _15  and  _16
REMARK    9  A    between atoms: _19  and  _21
REMARK   10  A    between atoms: _21  and  _22
REMARK   11  A    between atoms: _21  and  _24
REMARK   12  A    between atoms: _24  and  _25
REMARK   13  A    between atoms: _25  and  _26
REMARK   14  A    between atoms: _26  and  _27
REMARK   15  A    between atoms: _27  and  _28
REMARK   16  A    between atoms: _32  and  _34
REMARK   17  A    between atoms: _34  and  _35
REMARK   18  A    between atoms: _34  and  _37
REMARK   19  A    between atoms: _37  and  _38
REMARK   20  A    between atoms: _41  and  _43
REMARK   21  A    between atoms: _43  and  _44
REMARK   22  A    between atoms: _46  and  _48
REMARK   23  A    between atoms: _48  and  _49
REMARK   24  A    between atoms: _48  and  _51
REMARK   25  A    between atoms: _51  and  _52
REMARK   26  A    between atoms: _52  and  _53
REMARK   27  A    between atoms: _56  and  _58
REMARK   28  A    between atoms: _58  and  _59
REMARK   29  A    between atoms: _61  and  _63
REMARK   30  A    between atoms: _63  and  _64
REMARK   31  A    between atoms: _63  and  _66
REMARK   32  A    between atoms: _66  and  _67
REMARK   33  A    between atoms: _70  and  _72
REMARK   34  A    between atoms: _72  and  _73
REMARK   35  A    between atoms: _72  and  _75
REMARK   36  A    between atoms: _75  and  _76
REMARK   37  A    between atoms: _81  and  _82
REMARK   38  A    between atoms: _84  and  _86
REMARK   39  A    between atoms: _86  and  _87
REMARK   40  A    between atoms: _89  and  _91
REMARK   41  A    between atoms: _91  and  _92
REMARK   42  A    between atoms: _91  and  _94
REMARK   43  A    between atoms: _97  and  _99
REMARK   44  A    between atoms: _99  and  _100
REMARK   45  A    between atoms: _99  and  _102
REMARK   46  A    between atoms: _105  and  _107
REMARK   47  A    between atoms: _107  and  _108
REMARK   48  A    between atoms: _107  and  _110
REMARK   49  A    between atoms: _110  and  _111
REMARK   50  A    between atoms: _116  and  _117
REMARK   51  A    between atoms: _119  and  _121
REMARK   52  A    between atoms: _121  and  _122
REMARK   53  A    between atoms: _121  and  _124
REMARK   54  A    between atoms: _124  and  _125
REMARK   55  A    between atoms: _125  and  _126
REMARK   56  A    between atoms: _126  and  _127
REMARK   57  A    between atoms: _127  and  _128
REMARK   58  A    between atoms: _132  and  _134
REMARK   59  A    between atoms: _134  and  _135
REMARK   60  A    between atoms: _138  and  _140
REMARK   61  A    between atoms: _140  and  _141
REMARK   62  A    between atoms: _140  and  _143
REMARK   63  A    between atoms: _146  and  _148
REMARK   64  A    between atoms: _148  and  _149
REMARK   65  A    between atoms: _148  and  _151
REMARK   66  A    between atoms: _154  and  _156
REMARK   67  A    between atoms: _156  and  _157
REMARK   68  A    between atoms: _160  and  _162
REMARK   69  A    between atoms: _162  and  _163
REMARK   70  A    between atoms: _162  and  _165
REMARK   71  A    between atoms: _165  and  _166
REMARK   72  A    between atoms: _169  and  _171
REMARK   73  A    between atoms: _171  and  _172
REMARK   74  A    between atoms: _171  and  _174
REMARK   75  A    between atoms: _174  and  _175
REMARK   76  A    between atoms: _175  and  _176
REMARK   77  A    between atoms: _176  and  _177
REMARK   78  A    between atoms: _177  and  _178
REMARK   79  A    between atoms: _182  and  _184
REMARK   80  A    between atoms: _184  and  _185
REMARK   81  A    between atoms: _184  and  _187
REMARK   82  A    between atoms: _187  and  _188
REMARK   83  A    between atoms: _188  and  _189
REMARK   84  A    between atoms: _189  and  _190
REMARK   85  A    between atoms: _190  and  _191
REMARK   86  A    between atoms: _195  and  _197
REMARK   87  A    between atoms: _197  and  _198
REMARK   88  A    between atoms: _197  and  _200
REMARK   89  A    between atoms: _200  and  _201
REMARK   90  A    between atoms: _201  and  _202
REMARK   91  A    between atoms: _205  and  _207
REMARK   92  A    between atoms: _207  and  _208
REMARK   93  A    between atoms: _207  and  _210
REMARK   94  A    between atoms: _210  and  _211
REMARK   95  A    between atoms: _214  and  _216
REMARK   96  A    between atoms: _216  and  _217
REMARK   97  A    between atoms: _216  and  _219
REMARK   98  A    between atoms: _219  and  _220
REMARK   99  A    between atoms: _223  and  _225
REMARK  100  A    between atoms: _225  and  _226
REMARK  101  A    between atoms: _225  and  _228
REMARK  102  A    between atoms: _231  and  _233
REMARK  103  A    between atoms: _233  and  _234
REMARK  104  A    between atoms: _233  and  _236
REMARK  105  A    between atoms: _236  and  _237
REMARK  106  A    between atoms: _237  and  _238
REMARK  107  A    between atoms: _238  and  _239
REMARK  108  A    between atoms: _239  and  _240
REMARK  109  A    between atoms: _244  and  _246
REMARK  110  A    between atoms: _246  and  _247
REMARK  111  A    between atoms: _246  and  _249
REMARK  112  A    between atoms: _249  and  _250
REMARK  113  A    between atoms: _253  and  _255
REMARK  114  A    between atoms: _255  and  _256
REMARK  115  A    between atoms: _255  and  _258
REMARK  116  A    between atoms: _258  and  _259
REMARK  117  A    between atoms: _262  and  _264
REMARK  118  A    between atoms: _264  and  _265
REMARK  119  A    between atoms: _264  and  _267
REMARK  120  A    between atoms: _267  and  _268
REMARK  121  A    between atoms: _271  and  _273
REMARK  122  A    between atoms: _273  and  _274
REMARK  123  A    between atoms: _273  and  _276
REMARK  124  A    between atoms: _279  and  _281
REMARK  125  A    between atoms: _281  and  _282
REMARK  126  A    between atoms: _281  and  _284
REMARK  127  A    between atoms: _284  and  _285
REMARK  128  A    between atoms: _291  and  _293
REMARK  129  A    between atoms: _293  and  _294
REMARK  130  A    between atoms: _293  and  _296
REMARK  131  A    between atoms: _296  and  _297
REMARK  132  A    between atoms: _297  and  _298
REMARK  133  A    between atoms: _301  and  _303
REMARK  134  A    between atoms: _303  and  _304
REMARK  135  A    between atoms: _303  and  _306
REMARK  136  A    between atoms: _306  and  _307
REMARK  137  A    between atoms: _313  and  _315
REMARK  138  A    between atoms: _315  and  _316
REMARK  139  A    between atoms: _315  and  _318
REMARK  140  A    between atoms: _318  and  _319
REMARK  141  A    between atoms: _322  and  _324
REMARK  142  A    between atoms: _324  and  _325
REMARK  143  A    between atoms: _324  and  _327
REMARK  144  A    between atoms: _327  and  _328
REMARK  145  A    between atoms: _333  and  _335
REMARK  146  A    between atoms: _335  and  _336
REMARK  147  A    between atoms: _335  and  _338
REMARK  148  A    between atoms: _338  and  _339
REMARK  149  A    between atoms: _339  and  _340
REMARK  150  A    between atoms: _345  and  _347
REMARK  151  A    between atoms: _347  and  _348
REMARK  152  A    between atoms: _347  and  _350
REMARK  153  A    between atoms: _350  and  _351
REMARK  154  A    between atoms: _354  and  _356
REMARK  155  A    between atoms: _356  and  _357
REMARK  156  A    between atoms: _356  and  _359
REMARK  157  A    between atoms: _359  and  _360
REMARK  158  A    between atoms: _363  and  _365
REMARK  159  A    between atoms: _365  and  _366
REMARK  160  A    between atoms: _365  and  _368
REMARK  161  A    between atoms: _368  and  _369
REMARK  162  A    between atoms: _369  and  _370
REMARK  163  A    between atoms: _370  and  _371
REMARK  164  A    between atoms: _371  and  _372
REMARK  165  A    between atoms: _376  and  _378
REMARK  166  A    between atoms: _378  and  _379
REMARK  167  A    between atoms: _378  and  _381
REMARK  168  A    between atoms: _381  and  _382
REMARK  169  A    between atoms: _382  and  _383
REMARK  170  A    between atoms: _383  and  _384
REMARK  171  A    between atoms: _384  and  _385
REMARK  172  A    between atoms: _389  and  _391
REMARK  173  A    between atoms: _391  and  _392
REMARK  174  A    between atoms: _391  and  _394
REMARK  175  A    between atoms: _394  and  _395
REMARK  176  A    between atoms: _401  and  _403
REMARK  177  A    between atoms: _403  and  _404
REMARK  178  A    between atoms: _403  and  _406
REMARK  179  A    between atoms: _406  and  _407
REMARK  180  A    between atoms: _410  and  _412
REMARK  181  A    between atoms: _412  and  _413
REMARK  182  A    between atoms: _412  and  _415
REMARK  183  A    between atoms: _415  and  _416
REMARK  184  A    between atoms: _416  and  _417
REMARK  185  A    between atoms: _417  and  _418
REMARK  186  A    between atoms: _418  and  _419
REMARK  187  A    between atoms: _424  and  _425
REMARK  188  A    between atoms: _430  and  _432
REMARK  189  A    between atoms: _432  and  _433
REMARK  190  A    between atoms: _432  and  _435
REMARK  191  A    between atoms: _435  and  _436
REMARK  192  A    between atoms: _436  and  _437
REMARK  193  A    between atoms: _442  and  _444
REMARK  194  A    between atoms: _444  and  _445
REMARK  195  A    between atoms: _444  and  _447
REMARK  196  A    between atoms: _447  and  _448
REMARK  197  A    between atoms: _453  and  _455
REMARK  198  A    between atoms: _455  and  _456
REMARK  199  A    between atoms: _455  and  _458
REMARK  200  A    between atoms: _458  and  _459
REMARK  201  A    between atoms: _462  and  _464
REMARK  202  A    between atoms: _464  and  _465
REMARK  203  A    between atoms: _464  and  _467
REMARK  204  A    between atoms: _467  and  _468
REMARK  205  A    between atoms: _471  and  _473
REMARK  206  A    between atoms: _473  and  _474
REMARK  207  A    between atoms: _473  and  _476
REMARK  208  A    between atoms: _476  and  _477
REMARK  209  A    between atoms: _480  and  _482
REMARK  210  A    between atoms: _482  and  _483
REMARK  211  A    between atoms: _482  and  _485
REMARK  212  A    between atoms: _485  and  _486
REMARK  213  A    between atoms: _489  and  _491
REMARK  214  A    between atoms: _491  and  _492
REMARK  215  A    between atoms: _495  and  _497
REMARK  216  A    between atoms: _497  and  _498
REMARK  217  A    between atoms: _497  and  _500
REMARK  218  A    between atoms: _500  and  _501
REMARK  219  A    between atoms: _504  and  _506
REMARK  220  A    between atoms: _506  and  _507
REMARK  221  A    between atoms: _506  and  _509
REMARK  222  A    between atoms: _509  and  _510
REMARK  223  A    between atoms: _516  and  _518
REMARK  224  A    between atoms: _518  and  _519
REMARK  225  A    between atoms: _521  and  _523
REMARK  226  A    between atoms: _523  and  _524
REMARK  227  A    between atoms: _523  and  _526
REMARK  228  A    between atoms: _526  and  _527
REMARK                            x       y       z     vdW  Elec       q    Type
REMARK                         _______ _______ _______ _____ _____    ______ ____
ROOT
ATOM      1  O   HOH     1     -16.387  22.671 -28.174  0.00  0.00    +0.000 OA
ENDROOT
TORSDOF 0
REMARK  Name = ../refined-set-2016/4bco/4bco_pocket.pdb
REMARK  228 active torsions:
REMARK  status: ('A' for Active; 'I' for Inactive)
REMARK    1  A    between atoms: _1  and  _3
REMARK    2  A    between atoms: _3  and  _4
REMARK    3  A    between atoms: _3  and  _6
REMARK    4  A    between atoms: _9  and  _11
REMARK    5  A    between atoms: _11  and  _12
REMARK    6  A    between atoms: _11  and  _14
REMARK    7  A    between atoms: _14  and  _15
REMARK    8  A    between atoms: _15  and  _16
REMARK    9  A    between atoms: _19  and  _21
REMARK   10  A    between atoms: _21  and  _22
REMARK   11  A    between atoms: _21  and  _24
REMARK   12  A    between atoms: _24  and  _25
REMARK   13  A    between atoms: _25  and  _26
REMARK   14  A    between atoms: _26  and  _27
REMARK   15  A    between atoms: _27  and  _28
REMARK   16  A    between atoms: _32  and  _34
REMARK   17  A    between atoms: _34  and  _35
REMARK   18  A    between atoms: _34  and  _37
REMARK   19  A    between atoms: _37  and  _38
REMARK   20  A    between atoms: _41  and  _43
REMARK   21  A    between atoms: _43  and  _44
REMARK   22  A    between atoms: _46  and  _48
REMARK   23  A    between atoms: _48  and  _49
REMARK   24  A    between atoms: _48  and  _51
REMARK   25  A    between atoms: _51  and  _52
REMARK   26  A    between atoms: _52  and  _53
REMARK   27  A    between atoms: _56  and  _58
REMARK   28  A    between atoms: _58  and  _59
REMARK   29  A    between atoms: _61  and  _63
REMARK   30  A    between atoms: _63  and  _64
REMARK   31  A    between atoms: _63  and  _66
REMARK   32  A    between atoms: _66  and  _67
REMARK   33  A    between atoms: _70  and  _72
REMARK   34  A    between atoms: _72  and  _73
REMARK   35  A    between atoms: _72  and  _75
REMARK   36  A    between atoms: _75  and  _76
REMARK   37  A    between atoms: _81  and  _82
REMARK   38  A    between atoms: _84  and  _86
REMARK   39  A    between atoms: _86  and  _87
REMARK   40  A    between atoms: _89  and  _91
REMARK   41  A    between atoms: _91  and  _92
REMARK   42  A    between atoms: _91  and  _94
REMARK   43  A    between atoms: _97  and  _99
REMARK   44  A    between atoms: _99  and  _100
REMARK   45  A    between atoms: _99  and  _102
REMARK   46  A    between atoms: _105  and  _107
REMARK   47  A    between atoms: _107  and  _108
REMARK   48  A    between atoms: _107  and  _110
REMARK   49  A    between atoms: _110  and  _111
REMARK   50  A    between atoms: _116  and  _117
REMARK   51  A    between atoms: _119  and  _121
REMARK   52  A    between atoms: _121  and  _122
REMARK   53  A    between atoms: _121  and  _124
REMARK   54  A    between atoms: _124  and  _125
REMARK   55  A    between atoms: _125  and  _126
REMARK   56  A    between atoms: _126  and  _127
REMARK   57  A    between atoms: _127  and  _128
REMARK   58  A    between atoms: _132  and  _134
REMARK   59  A    between atoms: _134  and  _135
REMARK   60  A    between atoms: _138  and  _140
REMARK   61  A    between atoms: _140  and  _141
REMARK   62  A    between atoms: _140  and  _143
REMARK   63  A    between atoms: _146  and  _148
REMARK   64  A    between atoms: _148  and  _149
REMARK   65  A    between atoms: _148  and  _151
REMARK   66  A    between atoms: _154  and  _156
REMARK   67  A    between atoms: _156  and  _157
REMARK   68  A    between atoms: _160  and  _162
REMARK   69  A    between atoms: _162  and  _163
REMARK   70  A    between atoms: _162  and  _165
REMARK   71  A    between atoms: _165  and  _166
REMARK   72  A    between atoms: _169  and  _171
REMARK   73  A    between atoms: _171  and  _172
REMARK   74  A    between atoms: _171  and  _174
REMARK   75  A    between atoms: _174  and  _175
REMARK   76  A    between atoms: _175  and  _176
REMARK   77  A    between atoms: _176  and  _177
REMARK   78  A    between atoms: _177  and  _178
REMARK   79  A    between atoms: _182  and  _184
REMARK   80  A    between atoms: _184  and  _185
REMARK   81  A    between atoms: _184  and  _187
REMARK   82  A    between atoms: _187  and  _188
REMARK   83  A    between atoms: _188  and  _189
REMARK   84  A    between atoms: _189  and  _190
REMARK   85  A    between atoms: _190  and  _191
REMARK   86  A    between atoms: _195  and  _197
REMARK   87  A    between atoms: _197  and  _198
REMARK   88  A    between atoms: _197  and  _200
REMARK   89  A    between atoms: _200  and  _201
REMARK   90  A    between atoms: _201  and  _202
REMARK   91  A    between atoms: _205  and  _207
REMARK   92  A    between atoms: _207  and  _208
REMARK   93  A    between atoms: _207  and  _210
REMARK   94  A    between atoms: _210  and  _211
REMARK   95  A    between atoms: _214  and  _216
REMARK   96  A    between atoms: _216  and  _217
REMARK   97  A    between atoms: _216  and  _219
REMARK   98  A    between atoms: _219  and  _220
REMARK   99  A    between atoms: _223  and  _225
REMARK  100  A    between atoms: _225  and  _226
REMARK  101  A    between atoms: _225  and  _228
REMARK  102  A    between atoms: _231  and  _233
REMARK  103  A    between atoms: _233  and  _234
REMARK  104  A    between atoms: _233  and  _236
REMARK  105  A    between atoms: _236  and  _237
REMARK  106  A    between atoms: _237  and  _238
REMARK  107  A    between atoms: _238  and  _239
REMARK  108  A    between atoms: _239  and  _240
REMARK  109  A    between atoms: _244  and  _246
REMARK  110  A    between atoms: _246  and  _247
REMARK  111  A    between atoms: _246  and  _249
REMARK  112  A    between atoms: _249  and  _250
REMARK  113  A    between atoms: _253  and  _255
REMARK  114  A    between atoms: _255  and  _256
REMARK  115  A    between atoms: _255  and  _258
REMARK  116  A    between atoms: _258  and  _259
REMARK  117  A    between atoms: _262  and  _264
REMARK  118  A    between atoms: _264  and  _265
REMARK  119  A    between atoms: _264  and  _267
REMARK  120  A    between atoms: _267  and  _268
REMARK  121  A    between atoms: _271  and  _273
REMARK  122  A    between atoms: _273  and  _274
REMARK  123  A    between atoms: _273  and  _276
REMARK  124  A    between atoms: _279  and  _281
REMARK  125  A    between atoms: _281  and  _282
REMARK  126  A    between atoms: _281  and  _284
REMARK  127  A    between atoms: _284  and  _285
REMARK  128  A    between atoms: _291  and  _293
REMARK  129  A    between atoms: _293  and  _294
REMARK  130  A    between atoms: _293  and  _296
REMARK  131  A    between atoms: _296  and  _297
REMARK  132  A    between atoms: _297  and  _298
REMARK  133  A    between atoms: _301  and  _303
REMARK  134  A    between atoms: _303  and  _304
REMARK  135  A    between atoms: _303  and  _306
REMARK  136  A    between atoms: _306  and  _307
REMARK  137  A    between atoms: _313  and  _315
REMARK  138  A    between atoms: _315  and  _316
REMARK  139  A    between atoms: _315  and  _318
REMARK  140  A    between atoms: _318  and  _319
REMARK  141  A    between atoms: _322  and  _324
REMARK  142  A    between atoms: _324  and  _325
REMARK  143  A    between atoms: _324  and  _327
REMARK  144  A    between atoms: _327  and  _328
REMARK  145  A    between atoms: _333  and  _335
REMARK  146  A    between atoms: _335  and  _336
REMARK  147  A    between atoms: _335  and  _338
REMARK  148  A    between atoms: _338  and  _339
REMARK  149  A    between atoms: _339  and  _340
REMARK  150  A    between atoms: _345  and  _347
REMARK  151  A    between atoms: _347  and  _348
REMARK  152  A    between atoms: _347  and  _350
REMARK  153  A    between atoms: _350  and  _351
REMARK  154  A    between atoms: _354  and  _356
REMARK  155  A    between atoms: _356  and  _357
REMARK  156  A    between atoms: _356  and  _359
REMARK  157  A    between atoms: _359  and  _360
REMARK  158  A    between atoms: _363  and  _365
REMARK  159  A    between atoms: _365  and  _366
REMARK  160  A    between atoms: _365  and  _368
REMARK  161  A    between atoms: _368  and  _369
REMARK  162  A    between atoms: _369  and  _370
REMARK  163  A    between atoms: _370  and  _371
REMARK  164  A    between atoms: _371  and  _372
REMARK  165  A    between atoms: _376  and  _378
REMARK  166  A    between atoms: _378  and  _379
REMARK  167  A    between atoms: _378  and  _381
REMARK  168  A    between atoms: _381  and  _382
REMARK  169  A    between atoms: _382  and  _383
REMARK  170  A    between atoms: _383  and  _384
REMARK  171  A    between atoms: _384  and  _385
REMARK  172  A    between atoms: _389  and  _391
REMARK  173  A    between atoms: _391  and  _392
REMARK  174  A    between atoms: _391  and  _394
REMARK  175  A    between atoms: _394  and  _395
REMARK  176  A    between atoms: _401  and  _403
REMARK  177  A    between atoms: _403  and  _404
REMARK  178  A    between atoms: _403  and  _406
REMARK  179  A    between atoms: _406  and  _407
REMARK  180  A    between atoms: _410  and  _412
REMARK  181  A    between atoms: _412  and  _413
REMARK  182  A    between atoms: _412  and  _415
REMARK  183  A    between atoms: _415  and  _416
REMARK  184  A    between atoms: _416  and  _417
REMARK  185  A    between atoms: _417  and  _418
REMARK  186  A    between atoms: _418  and  _419
REMARK  187  A    between atoms: _424  and  _425
REMARK  188  A    between atoms: _430  and  _432
REMARK  189  A    between atoms: _432  and  _433
REMARK  190  A    between atoms: _432  and  _435
REMARK  191  A    between atoms: _435  and  _436
REMARK  192  A    between atoms: _436  and  _437
REMARK  193  A    between atoms: _442  and  _444
REMARK  194  A    between atoms: _444  and  _445
REMARK  195  A    between atoms: _444  and  _447
REMARK  196  A    between atoms: _447  and  _448
REMARK  197  A    between atoms: _453  and  _455
REMARK  198  A    between atoms: _455  and  _456
REMARK  199  A    between atoms: _455  and  _458
REMARK  200  A    between atoms: _458  and  _459
REMARK  201  A    between atoms: _462  and  _464
REMARK  202  A    between atoms: _464  and  _465
REMARK  203  A    between atoms: _464  and  _467
REMARK  204  A    between atoms: _467  and  _468
REMARK  205  A    between atoms: _471  and  _473
REMARK  206  A    between atoms: _473  and  _474
REMARK  207  A    between atoms: _473  and  _476
REMARK  208  A    between atoms: _476  and  _477
REMARK  209  A    between atoms: _480  and  _482
REMARK  210  A    between atoms: _482  and  _483
REMARK  211  A    between atoms: _482  and  _485
REMARK  212  A    between atoms: _485  and  _486
REMARK  213  A    between atoms: _489  and  _491
REMARK  214  A    between atoms: _491  and  _492
REMARK  215  A    between atoms: _495  and  _497
REMARK  216  A    between atoms: _497  and  _498
REMARK  217  A    between atoms: _497  and  _500
REMARK  218  A    between atoms: _500  and  _501
REMARK  219  A    between atoms: _504  and  _506
REMARK  220  A    between atoms: _506  and  _507
REMARK  221  A    between atoms: _506  and  _509
REMARK  222  A    between atoms: _509  and  _510
REMARK  223  A    between atoms: _516  and  _518
REMARK  224  A    between atoms: _518  and  _519
REMARK  225  A    between atoms: _521  and  _523
REMARK  226  A    between atoms: _523  and  _524
REMARK  227  A    between atoms: _523  and  _526
REMARK  228  A    between atoms: _526  and  _527
REMARK                            x       y       z     vdW  Elec       q    Type
REMARK                         _______ _______ _______ _____ _____    ______ ____
ROOT
ATOM      1  O   HOH     1      -0.110  23.369 -19.396  0.00  0.00    +0.000 OA
ENDROOT
TORSDOF 0
REMARK  Name = ../refined-set-2016/4bco/4bco_pocket.pdb
REMARK  228 active torsions:
REMARK  status: ('A' for Active; 'I' for Inactive)
REMARK    1  A    between atoms: _1  and  _3
REMARK    2  A    between atoms: _3  and  _4
REMARK    3  A    between atoms: _3  and  _6
REMARK    4  A    between atoms: _9  and  _11
REMARK    5  A    between atoms: _11  and  _12
REMARK    6  A    between atoms: _11  and  _14
REMARK    7  A    between atoms: _14  and  _15
REMARK    8  A    between atoms: _15  and  _16
REMARK    9  A    between atoms: _19  and  _21
REMARK   10  A    between atoms: _21  and  _22
REMARK   11  A    between atoms: _21  and  _24
REMARK   12  A    between atoms: _24  and  _25
REMARK   13  A    between atoms: _25  and  _26
REMARK   14  A    between atoms: _26  and  _27
REMARK   15  A    between atoms: _27  and  _28
REMARK   16  A    between atoms: _32  and  _34
REMARK   17  A    between atoms: _34  and  _35
REMARK   18  A    between atoms: _34  and  _37
REMARK   19  A    between atoms: _37  and  _38
REMARK   20  A    between atoms: _41  and  _43
REMARK   21  A    between atoms: _43  and  _44
REMARK   22  A    between atoms: _46  and  _48
REMARK   23  A    between atoms: _48  and  _49
REMARK   24  A    between atoms: _48  and  _51
REMARK   25  A    between atoms: _51  and  _52
REMARK   26  A    between atoms: _52  and  _53
REMARK   27  A    between atoms: _56  and  _58
REMARK   28  A    between atoms: _58  and  _59
REMARK   29  A    between atoms: _61  and  _63
REMARK   30  A    between atoms: _63  and  _64
REMARK   31  A    between atoms: _63  and  _66
REMARK   32  A    between atoms: _66  and  _67
REMARK   33  A    between atoms: _70  and  _72
REMARK   34  A    between atoms: _72  and  _73
REMARK   35  A    between atoms: _72  and  _75
REMARK   36  A    between atoms: _75  and  _76
REMARK   37  A    between atoms: _81  and  _82
REMARK   38  A    between atoms: _84  and  _86
REMARK   39  A    between atoms: _86  and  _87
REMARK   40  A    between atoms: _89  and  _91
REMARK   41  A    between atoms: _91  and  _92
REMARK   42  A    between atoms: _91  and  _94
REMARK   43  A    between atoms: _97  and  _99
REMARK   44  A    between atoms: _99  and  _100
REMARK   45  A    between atoms: _99  and  _102
REMARK   46  A    between atoms: _105  and  _107
REMARK   47  A    between atoms: _107  and  _108
REMARK   48  A    between atoms: _107  and  _110
REMARK   49  A    between atoms: _110  and  _111
REMARK   50  A    between atoms: _116  and  _117
REMARK   51  A    between atoms: _119  and  _121
REMARK   52  A    between atoms: _121  and  _122
REMARK   53  A    between atoms: _121  and  _124
REMARK   54  A    between atoms: _124  and  _125
REMARK   55  A    between atoms: _125  and  _126
REMARK   56  A    between atoms: _126  and  _127
REMARK   57  A    between atoms: _127  and  _128
REMARK   58  A    between atoms: _132  and  _134
REMARK   59  A    between atoms: _134  and  _135
REMARK   60  A    between atoms: _138  and  _140
REMARK   61  A    between atoms: _140  and  _141
REMARK   62  A    between atoms: _140  and  _143
REMARK   63  A    between atoms: _146  and  _148
REMARK   64  A    between atoms: _148  and  _149
REMARK   65  A    between atoms: _148  and  _151
REMARK   66  A    between atoms: _154  and  _156
REMARK   67  A    between atoms: _156  and  _157
REMARK   68  A    between atoms: _160  and  _162
REMARK   69  A    between atoms: _162  and  _163
REMARK   70  A    between atoms: _162  and  _165
REMARK   71  A    between atoms: _165  and  _166
REMARK   72  A    between atoms: _169  and  _171
REMARK   73  A    between atoms: _171  and  _172
REMARK   74  A    between atoms: _171  and  _174
REMARK   75  A    between atoms: _174  and  _175
REMARK   76  A    between atoms: _175  and  _176
REMARK   77  A    between atoms: _176  and  _177
REMARK   78  A    between atoms: _177  and  _178
REMARK   79  A    between atoms: _182  and  _184
REMARK   80  A    between atoms: _184  and  _185
REMARK   81  A    between atoms: _184  and  _187
REMARK   82  A    between atoms: _187  and  _188
REMARK   83  A    between atoms: _188  and  _189
REMARK   84  A    between atoms: _189  and  _190
REMARK   85  A    between atoms: _190  and  _191
REMARK   86  A    between atoms: _195  and  _197
REMARK   87  A    between atoms: _197  and  _198
REMARK   88  A    between atoms: _197  and  _200
REMARK   89  A    between atoms: _200  and  _201
REMARK   90  A    between atoms: _201  and  _202
REMARK   91  A    between atoms: _205  and  _207
REMARK   92  A    between atoms: _207  and  _208
REMARK   93  A    between atoms: _207  and  _210
REMARK   94  A    between atoms: _210  and  _211
REMARK   95  A    between atoms: _214  and  _216
REMARK   96  A    between atoms: _216  and  _217
REMARK   97  A    between atoms: _216  and  _219
REMARK   98  A    between atoms: _219  and  _220
REMARK   99  A    between atoms: _223  and  _225
REMARK  100  A    between atoms: _225  and  _226
REMARK  101  A    between atoms: _225  and  _228
REMARK  102  A    between atoms: _231  and  _233
REMARK  103  A    between atoms: _233  and  _234
REMARK  104  A    between atoms: _233  and  _236
REMARK  105  A    between atoms: _236  and  _237
REMARK  106  A    between atoms: _237  and  _238
REMARK  107  A    between atoms: _238  and  _239
REMARK  108  A    between atoms: _239  and  _240
REMARK  109  A    between atoms: _244  and  _246
REMARK  110  A    between atoms: _246  and  _247
REMARK  111  A    between atoms: _246  and  _249
REMARK  112  A    between atoms: _249  and  _250
REMARK  113  A    between atoms: _253  and  _255
REMARK  114  A    between atoms: _255  and  _256
REMARK  115  A    between atoms: _255  and  _258
REMARK  116  A    between atoms: _258  and  _259
REMARK  117  A    between atoms: _262  and  _264
REMARK  118  A    between atoms: _264  and  _265
REMARK  119  A    between atoms: _264  and  _267
REMARK  120  A    between atoms: _267  and  _268
REMARK  121  A    between atoms: _271  and  _273
REMARK  122  A    between atoms: _273  and  _274
REMARK  123  A    between atoms: _273  and  _276
REMARK  124  A    between atoms: _279  and  _281
REMARK  125  A    between atoms: _281  and  _282
REMARK  126  A    between atoms: _281  and  _284
REMARK  127  A    between atoms: _284  and  _285
REMARK  128  A    between atoms: _291  and  _293
REMARK  129  A    between atoms: _293  and  _294
REMARK  130  A    between atoms: _293  and  _296
REMARK  131  A    between atoms: _296  and  _297
REMARK  132  A    between atoms: _297  and  _298
REMARK  133  A    between atoms: _301  and  _303
REMARK  134  A    between atoms: _303  and  _304
REMARK  135  A    between atoms: _303  and  _306
REMARK  136  A    between atoms: _306  and  _307
REMARK  137  A    between atoms: _313  and  _315
REMARK  138  A    between atoms: _315  and  _316
REMARK  139  A    between atoms: _315  and  _318
REMARK  140  A    between atoms: _318  and  _319
REMARK  141  A    between atoms: _322  and  _324
REMARK  142  A    between atoms: _324  and  _325
REMARK  143  A    between atoms: _324  and  _327
REMARK  144  A    between atoms: _327  and  _328
REMARK  145  A    between atoms: _333  and  _335
REMARK  146  A    between atoms: _335  and  _336
REMARK  147  A    between atoms: _335  and  _338
REMARK  148  A    between atoms: _338  and  _339
REMARK  149  A    between atoms: _339  and  _340
REMARK  150  A    between atoms: _345  and  _347
REMARK  151  A    between atoms: _347  and  _348
REMARK  152  A    between atoms: _347  and  _350
REMARK  153  A    between atoms: _350  and  _351
REMARK  154  A    between atoms: _354  and  _356
REMARK  155  A    between atoms: _356  and  _357
REMARK  156  A    between atoms: _356  and  _359
REMARK  157  A    between atoms: _359  and  _360
REMARK  158  A    between atoms: _363  and  _365
REMARK  159  A    between atoms: _365  and  _366
REMARK  160  A    between atoms: _365  and  _368
REMARK  161  A    between atoms: _368  and  _369
REMARK  162  A    between atoms: _369  and  _370
REMARK  163  A    between atoms: _370  and  _371
REMARK  164  A    between atoms: _371  and  _372
REMARK  165  A    between atoms: _376  and  _378
REMARK  166  A    between atoms: _378  and  _379
REMARK  167  A    between atoms: _378  and  _381
REMARK  168  A    between atoms: _381  and  _382
REMARK  169  A    between atoms: _382  and  _383
REMARK  170  A    between atoms: _383  and  _384
REMARK  171  A    between atoms: _384  and  _385
REMARK  172  A    between atoms: _389  and  _391
REMARK  173  A    between atoms: _391  and  _392
REMARK  174  A    between atoms: _391  and  _394
REMARK  175  A    between atoms: _394  and  _395
REMARK  176  A    between atoms: _401  and  _403
REMARK  177  A    between atoms: _403  and  _404
REMARK  178  A    between atoms: _403  and  _406
REMARK  179  A    between atoms: _406  and  _407
REMARK  180  A    between atoms: _410  and  _412
REMARK  181  A    between atoms: _412  and  _413
REMARK  182  A    between atoms: _412  and  _415
REMARK  183  A    between atoms: _415  and  _416
REMARK  184  A    between atoms: _416  and  _417
REMARK  185  A    between atoms: _417  and  _418
REMARK  186  A    between atoms: _418  and  _419
REMARK  187  A    between atoms: _424  and  _425
REMARK  188  A    between atoms: _430  and  _432
REMARK  189  A    between atoms: _432  and  _433
REMARK  190  A    between atoms: _432  and  _435
REMARK  191  A    between atoms: _435  and  _436
REMARK  192  A    between atoms: _436  and  _437
REMARK  193  A    between atoms: _442  and  _444
REMARK  194  A    between atoms: _444  and  _445
REMARK  195  A    between atoms: _444  and  _447
REMARK  196  A    between atoms: _447  and  _448
REMARK  197  A    between atoms: _453  and  _455
REMARK  198  A    between atoms: _455  and  _456
REMARK  199  A    between atoms: _455  and  _458
REMARK  200  A    between atoms: _458  and  _459
REMARK  201  A    between atoms: _462  and  _464
REMARK  202  A    between atoms: _464  and  _465
REMARK  203  A    between atoms: _464  and  _467
REMARK  204  A    between atoms: _467  and  _468
REMARK  205  A    between atoms: _471  and  _473
REMARK  206  A    between atoms: _473  and  _474
REMARK  207  A    between atoms: _473  and  _476
REMARK  208  A    between atoms: _476  and  _477
REMARK  209  A    between atoms: _480  and  _482
REMARK  210  A    between atoms: _482  and  _483
REMARK  211  A    between atoms: _482  and  _485
REMARK  212  A    between atoms: _485  and  _486
REMARK  213  A    between atoms: _489  and  _491
REMARK  214  A    between atoms: _491  and  _492
REMARK  215  A    between atoms: _495  and  _497
REMARK  216  A    between atoms: _497  and  _498
REMARK  217  A    between atoms: _497  and  _500
REMARK  218  A    between atoms: _500  and  _501
REMARK  219  A    between atoms: _504  and  _506
REMARK  220  A    between atoms: _506  and  _507
REMARK  221  A    between atoms: _506  and  _509
REMARK  222  A    between atoms: _509  and  _510
REMARK  223  A    between atoms: _516  and  _518
REMARK  224  A    between atoms: _518  and  _519
REMARK  225  A    between atoms: _521  and  _523
REMARK  226  A    between atoms: _523  and  _524
REMARK  227  A    between atoms: _523  and  _526
REMARK  228  A    between atoms: _526  and  _527
REMARK                            x       y       z     vdW  Elec       q    Type
REMARK                         _______ _______ _______ _____ _____    ______ ____
ROOT
ATOM      1  O   HOH     1     -10.491  18.976 -18.135  0.00  0.00    +0.000 OA
ENDROOT
TORSDOF 0
REMARK  Name = ../refined-set-2016/4bco/4bco_pocket.pdb
REMARK  228 active torsions:
REMARK  status: ('A' for Active; 'I' for Inactive)
REMARK    1  A    between atoms: _1  and  _3
REMARK    2  A    between atoms: _3  and  _4
REMARK    3  A    between atoms: _3  and  _6
REMARK    4  A    between atoms: _9  and  _11
REMARK    5  A    between atoms: _11  and  _12
REMARK    6  A    between atoms: _11  and  _14
REMARK    7  A    between atoms: _14  and  _15
REMARK    8  A    between atoms: _15  and  _16
REMARK    9  A    between atoms: _19  and  _21
REMARK   10  A    between atoms: _21  and  _22
REMARK   11  A    between atoms: _21  and  _24
REMARK   12  A    between atoms: _24  and  _25
REMARK   13  A    between atoms: _25  and  _26
REMARK   14  A    between atoms: _26  and  _27
REMARK   15  A    between atoms: _27  and  _28
REMARK   16  A    between atoms: _32  and  _34
REMARK   17  A    between atoms: _34  and  _35
REMARK   18  A    between atoms: _34  and  _37
REMARK   19  A    between atoms: _37  and  _38
REMARK   20  A    between atoms: _41  and  _43
REMARK   21  A    between atoms: _43  and  _44
REMARK   22  A    between atoms: _46  and  _48
REMARK   23  A    between atoms: _48  and  _49
REMARK   24  A    between atoms: _48  and  _51
REMARK   25  A    between atoms: _51  and  _52
REMARK   26  A    between atoms: _52  and  _53
REMARK   27  A    between atoms: _56  and  _58
REMARK   28  A    between atoms: _58  and  _59
REMARK   29  A    between atoms: _61  and  _63
REMARK   30  A    between atoms: _63  and  _64
REMARK   31  A    between atoms: _63  and  _66
REMARK   32  A    between atoms: _66  and  _67
REMARK   33  A    between atoms: _70  and  _72
REMARK   34  A    between atoms: _72  and  _73
REMARK   35  A    between atoms: _72  and  _75
REMARK   36  A    between atoms: _75  and  _76
REMARK   37  A    between atoms: _81  and  _82
REMARK   38  A    between atoms: _84  and  _86
REMARK   39  A    between atoms: _86  and  _87
REMARK   40  A    between atoms: _89  and  _91
REMARK   41  A    between atoms: _91  and  _92
REMARK   42  A    between atoms: _91  and  _94
REMARK   43  A    between atoms: _97  and  _99
REMARK   44  A    between atoms: _99  and  _100
REMARK   45  A    between atoms: _99  and  _102
REMARK   46  A    between atoms: _105  and  _107
REMARK   47  A    between atoms: _107  and  _108
REMARK   48  A    between atoms: _107  and  _110
REMARK   49  A    between atoms: _110  and  _111
REMARK   50  A    between atoms: _116  and  _117
REMARK   51  A    between atoms: _119  and  _121
REMARK   52  A    between atoms: _121  and  _122
REMARK   53  A    between atoms: _121  and  _124
REMARK   54  A    between atoms: _124  and  _125
REMARK   55  A    between atoms: _125  and  _126
REMARK   56  A    between atoms: _126  and  _127
REMARK   57  A    between atoms: _127  and  _128
REMARK   58  A    between atoms: _132  and  _134
REMARK   59  A    between atoms: _134  and  _135
REMARK   60  A    between atoms: _138  and  _140
REMARK   61  A    between atoms: _140  and  _141
REMARK   62  A    between atoms: _140  and  _143
REMARK   63  A    between atoms: _146  and  _148
REMARK   64  A    between atoms: _148  and  _149
REMARK   65  A    between atoms: _148  and  _151
REMARK   66  A    between atoms: _154  and  _156
REMARK   67  A    between atoms: _156  and  _157
REMARK   68  A    between atoms: _160  and  _162
REMARK   69  A    between atoms: _162  and  _163
REMARK   70  A    between atoms: _162  and  _165
REMARK   71  A    between atoms: _165  and  _166
REMARK   72  A    between atoms: _169  and  _171
REMARK   73  A    between atoms: _171  and  _172
REMARK   74  A    between atoms: _171  and  _174
REMARK   75  A    between atoms: _174  and  _175
REMARK   76  A    between atoms: _175  and  _176
REMARK   77  A    between atoms: _176  and  _177
REMARK   78  A    between atoms: _177  and  _178
REMARK   79  A    between atoms: _182  and  _184
REMARK   80  A    between atoms: _184  and  _185
REMARK   81  A    between atoms: _184  and  _187
REMARK   82  A    between atoms: _187  and  _188
REMARK   83  A    between atoms: _188  and  _189
REMARK   84  A    between atoms: _189  and  _190
REMARK   85  A    between atoms: _190  and  _191
REMARK   86  A    between atoms: _195  and  _197
REMARK   87  A    between atoms: _197  and  _198
REMARK   88  A    between atoms: _197  and  _200
REMARK   89  A    between atoms: _200  and  _201
REMARK   90  A    between atoms: _201  and  _202
REMARK   91  A    between atoms: _205  and  _207
REMARK   92  A    between atoms: _207  and  _208
REMARK   93  A    between atoms: _207  and  _210
REMARK   94  A    between atoms: _210  and  _211
REMARK   95  A    between atoms: _214  and  _216
REMARK   96  A    between atoms: _216  and  _217
REMARK   97  A    between atoms: _216  and  _219
REMARK   98  A    between atoms: _219  and  _220
REMARK   99  A    between atoms: _223  and  _225
REMARK  100  A    between atoms: _225  and  _226
REMARK  101  A    between atoms: _225  and  _228
REMARK  102  A    between atoms: _231  and  _233
REMARK  103  A    between atoms: _233  and  _234
REMARK  104  A    between atoms: _233  and  _236
REMARK  105  A    between atoms: _236  and  _237
REMARK  106  A    between atoms: _237  and  _238
REMARK  107  A    between atoms: _238  and  _239
REMARK  108  A    between atoms: _239  and  _240
REMARK  109  A    between atoms: _244  and  _246
REMARK  110  A    between atoms: _246  and  _247
REMARK  111  A    between atoms: _246  and  _249
REMARK  112  A    between atoms: _249  and  _250
REMARK  113  A    between atoms: _253  and  _255
REMARK  114  A    between atoms: _255  and  _256
REMARK  115  A    between atoms: _255  and  _258
REMARK  116  A    between atoms: _258  and  _259
REMARK  117  A    between atoms: _262  and  _264
REMARK  118  A    between atoms: _264  and  _265
REMARK  119  A    between atoms: _264  and  _267
REMARK  120  A    between atoms: _267  and  _268
REMARK  121  A    between atoms: _271  and  _273
REMARK  122  A    between atoms: _273  and  _274
REMARK  123  A    between atoms: _273  and  _276
REMARK  124  A    between atoms: _279  and  _281
REMARK  125  A    between atoms: _281  and  _282
REMARK  126  A    between atoms: _281  and  _284
REMARK  127  A    between atoms: _284  and  _285
REMARK  128  A    between atoms: _291  and  _293
REMARK  129  A    between atoms: _293  and  _294
REMARK  130  A    between atoms: _293  and  _296
REMARK  131  A    between atoms: _296  and  _297
REMARK  132  A    between atoms: _297  and  _298
REMARK  133  A    between atoms: _301  and  _303
REMARK  134  A    between atoms: _303  and  _304
REMARK  135  A    between atoms: _303  and  _306
REMARK  136  A    between atoms: _306  and  _307
REMARK  137  A    between atoms: _313  and  _315
REMARK  138  A    between atoms: _315  and  _316
REMARK  139  A    between atoms: _315  and  _318
REMARK  140  A    between atoms: _318  and  _319
REMARK  141  A    between atoms: _322  and  _324
REMARK  142  A    between atoms: _324  and  _325
REMARK  143  A    between atoms: _324  and  _327
REMARK  144  A    between atoms: _327  and  _328
REMARK  145  A    between atoms: _333  and  _335
REMARK  146  A    between atoms: _335  and  _336
REMARK  147  A    between atoms: _335  and  _338
REMARK  148  A    between atoms: _338  and  _339
REMARK  149  A    between atoms: _339  and  _340
REMARK  150  A    between atoms: _345  and  _347
REMARK  151  A    between atoms: _347  and  _348
REMARK  152  A    between atoms: _347  and  _350
REMARK  153  A    between atoms: _350  and  _351
REMARK  154  A    between atoms: _354  and  _356
REMARK  155  A    between atoms: _356  and  _357
REMARK  156  A    between atoms: _356  and  _359
REMARK  157  A    between atoms: _359  and  _360
REMARK  158  A    between atoms: _363  and  _365
REMARK  159  A    between atoms: _365  and  _366
REMARK  160  A    between atoms: _365  and  _368
REMARK  161  A    between atoms: _368  and  _369
REMARK  162  A    between atoms: _369  and  _370
REMARK  163  A    between atoms: _370  and  _371
REMARK  164  A    between atoms: _371  and  _372
REMARK  165  A    between atoms: _376  and  _378
REMARK  166  A    between atoms: _378  and  _379
REMARK  167  A    between atoms: _378  and  _381
REMARK  168  A    between atoms: _381  and  _382
REMARK  169  A    between atoms: _382  and  _383
REMARK  170  A    between atoms: _383  and  _384
REMARK  171  A    between atoms: _384  and  _385
REMARK  172  A    between atoms: _389  and  _391
REMARK  173  A    between atoms: _391  and  _392
REMARK  174  A    between atoms: _391  and  _394
REMARK  175  A    between atoms: _394  and  _395
REMARK  176  A    between atoms: _401  and  _403
REMARK  177  A    between atoms: _403  and  _404
REMARK  178  A    between atoms: _403  and  _406
REMARK  179  A    between atoms: _406  and  _407
REMARK  180  A    between atoms: _410  and  _412
REMARK  181  A    between atoms: _412  and  _413
REMARK  182  A    between atoms: _412  and  _415
REMARK  183  A    between atoms: _415  and  _416
REMARK  184  A    between atoms: _416  and  _417
REMARK  185  A    between atoms: _417  and  _418
REMARK  186  A    between atoms: _418  and  _419
REMARK  187  A    between atoms: _424  and  _425
REMARK  188  A    between atoms: _430  and  _432
REMARK  189  A    between atoms: _432  and  _433
REMARK  190  A    between atoms: _432  and  _435
REMARK  191  A    between atoms: _435  and  _436
REMARK  192  A    between atoms: _436  and  _437
REMARK  193  A    between atoms: _442  and  _444
REMARK  194  A    between atoms: _444  and  _445
REMARK  195  A    between atoms: _444  and  _447
REMARK  196  A    between atoms: _447  and  _448
REMARK  197  A    between atoms: _453  and  _455
REMARK  198  A    between atoms: _455  and  _456
REMARK  199  A    between atoms: _455  and  _458
REMARK  200  A    between atoms: _458  and  _459
REMARK  201  A    between atoms: _462  and  _464
REMARK  202  A    between atoms: _464  and  _465
REMARK  203  A    between atoms: _464  and  _467
REMARK  204  A    between atoms: _467  and  _468
REMARK  205  A    between atoms: _471  and  _473
REMARK  206  A    between atoms: _473  and  _474
REMARK  207  A    between atoms: _473  and  _476
REMARK  208  A    between atoms: _476  and  _477
REMARK  209  A    between atoms: _480  and  _482
REMARK  210  A    between atoms: _482  and  _483
REMARK  211  A    between atoms: _482  and  _485
REMARK  212  A    between atoms: _485  and  _486
REMARK  213  A    between atoms: _489  and  _491
REMARK  214  A    between atoms: _491  and  _492
REMARK  215  A    between atoms: _495  and  _497
REMARK  216  A    between atoms: _497  and  _498
REMARK  217  A    between atoms: _497  and  _500
REMARK  218  A    between atoms: _500  and  _501
REMARK  219  A    between atoms: _504  and  _506
REMARK  220  A    between atoms: _506  and  _507
REMARK  221  A    between atoms: _506  and  _509
REMARK  222  A    between atoms: _509  and  _510
REMARK  223  A    between atoms: _516  and  _518
REMARK  224  A    between atoms: _518  and  _519
REMARK  225  A    between atoms: _521  and  _523
REMARK  226  A    between atoms: _523  and  _524
REMARK  227  A    between atoms: _523  and  _526
REMARK  228  A    between atoms: _526  and  _527
REMARK                            x       y       z     vdW  Elec       q    Type
REMARK                         _______ _______ _______ _____ _____    ______ ____
ROOT
ATOM      1  O   HOH     1      -2.457  24.591 -20.342  0.00  0.00    +0.000 OA
ENDROOT
TORSDOF 0
