REMARK  Name = ../refined-set-2016/1msn/1msn_pocket.pdb
REMARK  238 active torsions:
REMARK  status: ('A' for Active; 'I' for Inactive)
REMARK    1  A    between atoms: _1  and  _3
REMARK    2  A    between atoms: _3  and  _4
REMARK    3  A    between atoms: _3  and  _6
REMARK    4  A    between atoms: _6  and  _7
REMARK    5  A    between atoms: _7  and  _8
REMARK    6  A    between atoms: _8  and  _9
REMARK    7  A    between atoms: _18  and  _20
REMARK    8  A    between atoms: _20  and  _21
REMARK    9  A    between atoms: _20  and  _23
REMARK   10  A    between atoms: _23  and  _24
REMARK   11  A    between atoms: _27  and  _29
REMARK   12  A    between atoms: _29  and  _30
REMARK   13  A    between atoms: _29  and  _32
REMARK   14  A    between atoms: _32  and  _33
REMARK   15  A    between atoms: _36  and  _38
REMARK   16  A    between atoms: _38  and  _39
REMARK   17  A    between atoms: _38  and  _41
REMARK   18  A    between atoms: _41  and  _42
REMARK   19  A    between atoms: _45  and  _47
REMARK   20  A    between atoms: _47  and  _48
REMARK   21  A    between atoms: _47  and  _50
REMARK   22  A    between atoms: _50  and  _51
REMARK   23  A    between atoms: _54  and  _56
REMARK   24  A    between atoms: _56  and  _57
REMARK   25  A    between atoms: _59  and  _61
REMARK   26  A    between atoms: _61  and  _62
REMARK   27  A    between atoms: _65  and  _67
REMARK   28  A    between atoms: _67  and  _68
REMARK   29  A    between atoms: _67  and  _70
REMARK   30  A    between atoms: _70  and  _71
REMARK   31  A    between atoms: _74  and  _76
REMARK   32  A    between atoms: _76  and  _77
REMARK   33  A    between atoms: _76  and  _79
REMARK   34  A    between atoms: _79  and  _80
REMARK   35  A    between atoms: _83  and  _85
REMARK   36  A    between atoms: _85  and  _86
REMARK   37  A    between atoms: _85  and  _88
REMARK   38  A    between atoms: _88  and  _89
REMARK   39  A    between atoms: _92  and  _94
REMARK   40  A    between atoms: _94  and  _95
REMARK   41  A    between atoms: _94  and  _97
REMARK   42  A    between atoms: _100  and  _102
REMARK   43  A    between atoms: _102  and  _103
REMARK   44  A    between atoms: _102  and  _105
REMARK   45  A    between atoms: _105  and  _106
REMARK   46  A    between atoms: _109  and  _111
REMARK   47  A    between atoms: _111  and  _112
REMARK   48  A    between atoms: _111  and  _114
REMARK   49  A    between atoms: _114  and  _115
REMARK   50  A    between atoms: _115  and  _116
REMARK   51  A    between atoms: _116  and  _117
REMARK   52  A    between atoms: _117  and  _118
REMARK   53  A    between atoms: _122  and  _124
REMARK   54  A    between atoms: _124  and  _125
REMARK   55  A    between atoms: _124  and  _127
REMARK   56  A    between atoms: _127  and  _128
REMARK   57  A    between atoms: _128  and  _129
REMARK   58  A    between atoms: _131  and  _133
REMARK   59  A    between atoms: _133  and  _134
REMARK   60  A    between atoms: _133  and  _136
REMARK   61  A    between atoms: _136  and  _137
REMARK   62  A    between atoms: _140  and  _142
REMARK   63  A    between atoms: _142  and  _143
REMARK   64  A    between atoms: _145  and  _147
REMARK   65  A    between atoms: _147  and  _148
REMARK   66  A    between atoms: _150  and  _152
REMARK   67  A    between atoms: _152  and  _153
REMARK   68  A    between atoms: _152  and  _155
REMARK   69  A    between atoms: _155  and  _156
REMARK   70  A    between atoms: _159  and  _161
REMARK   71  A    between atoms: _161  and  _162
REMARK   72  A    between atoms: _164  and  _166
REMARK   73  A    between atoms: _166  and  _167
REMARK   74  A    between atoms: _169  and  _171
REMARK   75  A    between atoms: _171  and  _172
REMARK   76  A    between atoms: _171  and  _174
REMARK   77  A    between atoms: _174  and  _175
REMARK   78  A    between atoms: _181  and  _183
REMARK   79  A    between atoms: _183  and  _184
REMARK   80  A    between atoms: _183  and  _186
REMARK   81  A    between atoms: _186  and  _187
REMARK   82  A    between atoms: _190  and  _192
REMARK   83  A    between atoms: _192  and  _193
REMARK   84  A    between atoms: _192  and  _195
REMARK   85  A    between atoms: _198  and  _200
REMARK   86  A    between atoms: _200  and  _201
REMARK   87  A    between atoms: _200  and  _203
REMARK   88  A    between atoms: _203  and  _204
REMARK   89  A    between atoms: _208  and  _209
REMARK   90  A    between atoms: _214  and  _216
REMARK   91  A    between atoms: _216  and  _217
REMARK   92  A    between atoms: _216  and  _219
REMARK   93  A    between atoms: _219  and  _220
REMARK   94  A    between atoms: _224  and  _225
REMARK   95  A    between atoms: _230  and  _232
REMARK   96  A    between atoms: _232  and  _233
REMARK   97  A    between atoms: _232  and  _235
REMARK   98  A    between atoms: _235  and  _236
REMARK   99  A    between atoms: _242  and  _244
REMARK  100  A    between atoms: _244  and  _245
REMARK  101  A    between atoms: _244  and  _247
REMARK  102  A    between atoms: _247  and  _248
REMARK  103  A    between atoms: _253  and  _255
REMARK  104  A    between atoms: _255  and  _256
REMARK  105  A    between atoms: _255  and  _258
REMARK  106  A    between atoms: _261  and  _263
REMARK  107  A    between atoms: _263  and  _264
REMARK  108  A    between atoms: _263  and  _266
REMARK  109  A    between atoms: _266  and  _267
REMARK  110  A    between atoms: _270  and  _272
REMARK  111  A    between atoms: _272  and  _273
REMARK  112  A    between atoms: _275  and  _277
REMARK  113  A    between atoms: _277  and  _278
REMARK  114  A    between atoms: _277  and  _280
REMARK  115  A    between atoms: _280  and  _281
REMARK  116  A    between atoms: _281  and  _282
REMARK  117  A    between atoms: _282  and  _283
REMARK  118  A    between atoms: _292  and  _294
REMARK  119  A    between atoms: _294  and  _295
REMARK  120  A    between atoms: _294  and  _297
REMARK  121  A    between atoms: _297  and  _298
REMARK  122  A    between atoms: _303  and  _305
REMARK  123  A    between atoms: _305  and  _306
REMARK  124  A    between atoms: _305  and  _308
REMARK  125  A    between atoms: _308  and  _309
REMARK  126  A    between atoms: _309  and  _310
REMARK  127  A    between atoms: _310  and  _311
REMARK  128  A    between atoms: _320  and  _322
REMARK  129  A    between atoms: _322  and  _323
REMARK  130  A    between atoms: _322  and  _325
REMARK  131  A    between atoms: _325  and  _326
REMARK  132  A    between atoms: _329  and  _331
REMARK  133  A    between atoms: _331  and  _332
REMARK  134  A    between atoms: _331  and  _334
REMARK  135  A    between atoms: _334  and  _335
REMARK  136  A    between atoms: _338  and  _340
REMARK  137  A    between atoms: _340  and  _341
REMARK  138  A    between atoms: _340  and  _343
REMARK  139  A    between atoms: _343  and  _344
REMARK  140  A    between atoms: _347  and  _349
REMARK  141  A    between atoms: _349  and  _350
REMARK  142  A    between atoms: _349  and  _352
REMARK  143  A    between atoms: _352  and  _353
REMARK  144  A    between atoms: _356  and  _358
REMARK  145  A    between atoms: _358  and  _359
REMARK  146  A    between atoms: _358  and  _361
REMARK  147  A    between atoms: _361  and  _362
REMARK  148  A    between atoms: _365  and  _367
REMARK  149  A    between atoms: _367  and  _368
REMARK  150  A    between atoms: _370  and  _372
REMARK  151  A    between atoms: _372  and  _373
REMARK  152  A    between atoms: _376  and  _378
REMARK  153  A    between atoms: _378  and  _379
REMARK  154  A    between atoms: _378  and  _381
REMARK  155  A    between atoms: _381  and  _382
REMARK  156  A    between atoms: _385  and  _387
REMARK  157  A    between atoms: _387  and  _388
REMARK  158  A    between atoms: _387  and  _390
REMARK  159  A    between atoms: _390  and  _391
REMARK  160  A    between atoms: _394  and  _396
REMARK  161  A    between atoms: _396  and  _397
REMARK  162  A    between atoms: _396  and  _399
REMARK  163  A    between atoms: _399  and  _400
REMARK  164  A    between atoms: _403  and  _405
REMARK  165  A    between atoms: _405  and  _406
REMARK  166  A    between atoms: _405  and  _408
REMARK  167  A    between atoms: _411  and  _413
REMARK  168  A    between atoms: _413  and  _414
REMARK  169  A    between atoms: _413  and  _416
REMARK  170  A    between atoms: _416  and  _417
REMARK  171  A    between atoms: _417  and  _418
REMARK  172  A    between atoms: _418  and  _419
REMARK  173  A    between atoms: _419  and  _420
REMARK  174  A    between atoms: _424  and  _426
REMARK  175  A    between atoms: _426  and  _427
REMARK  176  A    between atoms: _426  and  _429
REMARK  177  A    between atoms: _429  and  _430
REMARK  178  A    between atoms: _430  and  _431
REMARK  179  A    between atoms: _433  and  _435
REMARK  180  A    between atoms: _435  and  _436
REMARK  181  A    between atoms: _435  and  _438
REMARK  182  A    between atoms: _438  and  _439
REMARK  183  A    between atoms: _442  and  _444
REMARK  184  A    between atoms: _444  and  _445
REMARK  185  A    between atoms: _447  and  _449
REMARK  186  A    between atoms: _449  and  _450
REMARK  187  A    between atoms: _452  and  _454
REMARK  188  A    between atoms: _454  and  _455
REMARK  189  A    between atoms: _454  and  _457
REMARK  190  A    between atoms: _457  and  _458
REMARK  191  A    between atoms: _461  and  _463
REMARK  192  A    between atoms: _463  and  _464
REMARK  193  A    between atoms: _466  and  _468
REMARK  194  A    between atoms: _468  and  _469
REMARK  195  A    between atoms: _471  and  _473
REMARK  196  A    between atoms: _473  and  _474
REMARK  197  A    between atoms: _473  and  _476
REMARK  198  A    between atoms: _476  and  _477
REMARK  199  A    between atoms: _480  and  _482
REMARK  200  A    between atoms: _482  and  _483
REMARK  201  A    between atoms: _482  and  _485
REMARK  202  A    between atoms: _488  and  _490
REMARK  203  A    between atoms: _490  and  _491
REMARK  204  A    between atoms: _490  and  _493
REMARK  205  A    between atoms: _493  and  _494
REMARK  206  A    between atoms: _498  and  _499
REMARK  207  A    between atoms: _504  and  _506
REMARK  208  A    between atoms: _506  and  _507
REMARK  209  A    between atoms: _506  and  _509
REMARK  210  A    between atoms: _509  and  _510
REMARK  211  A    between atoms: _514  and  _515
REMARK  212  A    between atoms: _520  and  _522
REMARK  213  A    between atoms: _522  and  _523
REMARK  214  A    between atoms: _522  and  _525
REMARK  215  A    between atoms: _525  and  _526
REMARK  216  A    between atoms: _532  and  _534
REMARK  217  A    between atoms: _534  and  _535
REMARK  218  A    between atoms: _534  and  _537
REMARK  219  A    between atoms: _537  and  _538
REMARK  220  A    between atoms: _543  and  _545
REMARK  221  A    between atoms: _545  and  _546
REMARK  222  A    between atoms: _545  and  _548
REMARK  223  A    between atoms: _551  and  _553
REMARK  224  A    between atoms: _553  and  _554
REMARK  225  A    between atoms: _553  and  _556
REMARK  226  A    between atoms: _556  and  _557
REMARK  227  A    between atoms: _560  and  _562
REMARK  228  A    between atoms: _562  and  _563
REMARK  229  A    between atoms: _565  and  _567
REMARK  230  A    between atoms: _567  and  _568
REMARK  231  A    between atoms: _567  and  _570
REMARK  232  A    between atoms: _570  and  _571
REMARK  233  A    between atoms: _571  and  _572
REMARK  234  A    between atoms: _572  and  _573
REMARK  235  A    between atoms: _582  and  _584
REMARK  236  A    between atoms: _584  and  _585
REMARK  237  A    between atoms: _584  and  _587
REMARK  238  A    between atoms: _587  and  _588
REMARK                            x       y       z     vdW  Elec       q    Type
REMARK                         _______ _______ _______ _____ _____    ______ ____
ROOT
ATOM      1  NE  ARG A   1       5.677  20.563  15.229  0.00  0.00    -0.265 N 
ATOM      2  HE  ARG A   1       5.898  20.440  16.238  0.00  0.00    +0.259 HD
ATOM      3  CZ  ARG A   1       5.916  19.542  14.411  0.00  0.00    +0.342 C 
ATOM      4  NH2 ARG A   1       6.437  18.419  14.888  0.00  0.00    -0.292 N 
ATOM      5 HH21 ARG A   1       6.658  18.338  15.901  0.00  0.00    +0.255 HD
ATOM      6 HH22 ARG A   1       6.624  17.620  14.249  0.00  0.00    +0.255 HD
ATOM      7  NH1 ARG A   1       5.646  19.647  13.115  0.00  0.00    -0.292 N 
ATOM      8 HH11 ARG A   1       5.246  20.530  12.737  0.00  0.00    +0.255 HD
ATOM      9 HH12 ARG A   1       5.834  18.847  12.478  0.00  0.00    +0.255 HD
ENDROOT
BRANCH   1  10
ATOM     10  CD  ARG A   1       5.124  21.846  14.804  0.00  0.00    +0.174 C 
BRANCH  10  11
ATOM     11  CG  ARG A   1       4.729  22.693  15.997  0.00  0.00    +0.045 C 
BRANCH  11  12
ATOM     12  CB  ARG A   1       4.272  24.074  15.575  0.00  0.00    +0.029 C 
BRANCH  12  13
ATOM     13  CA  ARG A   1       3.670  24.886  16.716  0.00  0.00    +0.133 C 
BRANCH  13  14
ATOM     14  N   ARG A   1       2.491  24.211  17.243  0.00  0.00    -0.239 NA
ATOM     15  H   ARG A   1       2.169  23.323  16.807  0.00  0.00    +0.142 HD
ENDBRANCH  13  14
BRANCH  13  16
ATOM     16  C   ARG A   1       3.301  26.279  16.222  0.00  0.00    +0.224 C 
ATOM     17  O   ARG A   1       2.306  26.457  15.514  0.00  0.00    -0.287 OA
ENDBRANCH  13  16
ENDBRANCH  12  13
ENDBRANCH  11  12
ENDBRANCH  10  11
ENDBRANCH   1  10
TORSDOF 6
REMARK  Name = ../refined-set-2016/1msn/1msn_pocket.pdb
REMARK  238 active torsions:
REMARK  status: ('A' for Active; 'I' for Inactive)
REMARK    1  A    between atoms: _1  and  _3
REMARK    2  A    between atoms: _3  and  _4
REMARK    3  A    between atoms: _3  and  _6
REMARK    4  A    between atoms: _6  and  _7
REMARK    5  A    between atoms: _7  and  _8
REMARK    6  A    between atoms: _8  and  _9
REMARK    7  A    between atoms: _18  and  _20
REMARK    8  A    between atoms: _20  and  _21
REMARK    9  A    between atoms: _20  and  _23
REMARK   10  A    between atoms: _23  and  _24
REMARK   11  A    between atoms: _27  and  _29
REMARK   12  A    between atoms: _29  and  _30
REMARK   13  A    between atoms: _29  and  _32
REMARK   14  A    between atoms: _32  and  _33
REMARK   15  A    between atoms: _36  and  _38
REMARK   16  A    between atoms: _38  and  _39
REMARK   17  A    between atoms: _38  and  _41
REMARK   18  A    between atoms: _41  and  _42
REMARK   19  A    between atoms: _45  and  _47
REMARK   20  A    between atoms: _47  and  _48
REMARK   21  A    between atoms: _47  and  _50
REMARK   22  A    between atoms: _50  and  _51
REMARK   23  A    between atoms: _54  and  _56
REMARK   24  A    between atoms: _56  and  _57
REMARK   25  A    between atoms: _59  and  _61
REMARK   26  A    between atoms: _61  and  _62
REMARK   27  A    between atoms: _65  and  _67
REMARK   28  A    between atoms: _67  and  _68
REMARK   29  A    between atoms: _67  and  _70
REMARK   30  A    between atoms: _70  and  _71
REMARK   31  A    between atoms: _74  and  _76
REMARK   32  A    between atoms: _76  and  _77
REMARK   33  A    between atoms: _76  and  _79
REMARK   34  A    between atoms: _79  and  _80
REMARK   35  A    between atoms: _83  and  _85
REMARK   36  A    between atoms: _85  and  _86
REMARK   37  A    between atoms: _85  and  _88
REMARK   38  A    between atoms: _88  and  _89
REMARK   39  A    between atoms: _92  and  _94
REMARK   40  A    between atoms: _94  and  _95
REMARK   41  A    between atoms: _94  and  _97
REMARK   42  A    between atoms: _100  and  _102
REMARK   43  A    between atoms: _102  and  _103
REMARK   44  A    between atoms: _102  and  _105
REMARK   45  A    between atoms: _105  and  _106
REMARK   46  A    between atoms: _109  and  _111
REMARK   47  A    between atoms: _111  and  _112
REMARK   48  A    between atoms: _111  and  _114
REMARK   49  A    between atoms: _114  and  _115
REMARK   50  A    between atoms: _115  and  _116
REMARK   51  A    between atoms: _116  and  _117
REMARK   52  A    between atoms: _117  and  _118
REMARK   53  A    between atoms: _122  and  _124
REMARK   54  A    between atoms: _124  and  _125
REMARK   55  A    between atoms: _124  and  _127
REMARK   56  A    between atoms: _127  and  _128
REMARK   57  A    between atoms: _128  and  _129
REMARK   58  A    between atoms: _131  and  _133
REMARK   59  A    between atoms: _133  and  _134
REMARK   60  A    between atoms: _133  and  _136
REMARK   61  A    between atoms: _136  and  _137
REMARK   62  A    between atoms: _140  and  _142
REMARK   63  A    between atoms: _142  and  _143
REMARK   64  A    between atoms: _145  and  _147
REMARK   65  A    between atoms: _147  and  _148
REMARK   66  A    between atoms: _150  and  _152
REMARK   67  A    between atoms: _152  and  _153
REMARK   68  A    between atoms: _152  and  _155
REMARK   69  A    between atoms: _155  and  _156
REMARK   70  A    between atoms: _159  and  _161
REMARK   71  A    between atoms: _161  and  _162
REMARK   72  A    between atoms: _164  and  _166
REMARK   73  A    between atoms: _166  and  _167
REMARK   74  A    between atoms: _169  and  _171
REMARK   75  A    between atoms: _171  and  _172
REMARK   76  A    between atoms: _171  and  _174
REMARK   77  A    between atoms: _174  and  _175
REMARK   78  A    between atoms: _181  and  _183
REMARK   79  A    between atoms: _183  and  _184
REMARK   80  A    between atoms: _183  and  _186
REMARK   81  A    between atoms: _186  and  _187
REMARK   82  A    between atoms: _190  and  _192
REMARK   83  A    between atoms: _192  and  _193
REMARK   84  A    between atoms: _192  and  _195
REMARK   85  A    between atoms: _198  and  _200
REMARK   86  A    between atoms: _200  and  _201
REMARK   87  A    between atoms: _200  and  _203
REMARK   88  A    between atoms: _203  and  _204
REMARK   89  A    between atoms: _208  and  _209
REMARK   90  A    between atoms: _214  and  _216
REMARK   91  A    between atoms: _216  and  _217
REMARK   92  A    between atoms: _216  and  _219
REMARK   93  A    between atoms: _219  and  _220
REMARK   94  A    between atoms: _224  and  _225
REMARK   95  A    between atoms: _230  and  _232
REMARK   96  A    between atoms: _232  and  _233
REMARK   97  A    between atoms: _232  and  _235
REMARK   98  A    between atoms: _235  and  _236
REMARK   99  A    between atoms: _242  and  _244
REMARK  100  A    between atoms: _244  and  _245
REMARK  101  A    between atoms: _244  and  _247
REMARK  102  A    between atoms: _247  and  _248
REMARK  103  A    between atoms: _253  and  _255
REMARK  104  A    between atoms: _255  and  _256
REMARK  105  A    between atoms: _255  and  _258
REMARK  106  A    between atoms: _261  and  _263
REMARK  107  A    between atoms: _263  and  _264
REMARK  108  A    between atoms: _263  and  _266
REMARK  109  A    between atoms: _266  and  _267
REMARK  110  A    between atoms: _270  and  _272
REMARK  111  A    between atoms: _272  and  _273
REMARK  112  A    between atoms: _275  and  _277
REMARK  113  A    between atoms: _277  and  _278
REMARK  114  A    between atoms: _277  and  _280
REMARK  115  A    between atoms: _280  and  _281
REMARK  116  A    between atoms: _281  and  _282
REMARK  117  A    between atoms: _282  and  _283
REMARK  118  A    between atoms: _292  and  _294
REMARK  119  A    between atoms: _294  and  _295
REMARK  120  A    between atoms: _294  and  _297
REMARK  121  A    between atoms: _297  and  _298
REMARK  122  A    between atoms: _303  and  _305
REMARK  123  A    between atoms: _305  and  _306
REMARK  124  A    between atoms: _305  and  _308
REMARK  125  A    between atoms: _308  and  _309
REMARK  126  A    between atoms: _309  and  _310
REMARK  127  A    between atoms: _310  and  _311
REMARK  128  A    between atoms: _320  and  _322
REMARK  129  A    between atoms: _322  and  _323
REMARK  130  A    between atoms: _322  and  _325
REMARK  131  A    between atoms: _325  and  _326
REMARK  132  A    between atoms: _329  and  _331
REMARK  133  A    between atoms: _331  and  _332
REMARK  134  A    between atoms: _331  and  _334
REMARK  135  A    between atoms: _334  and  _335
REMARK  136  A    between atoms: _338  and  _340
REMARK  137  A    between atoms: _340  and  _341
REMARK  138  A    between atoms: _340  and  _343
REMARK  139  A    between atoms: _343  and  _344
REMARK  140  A    between atoms: _347  and  _349
REMARK  141  A    between atoms: _349  and  _350
REMARK  142  A    between atoms: _349  and  _352
REMARK  143  A    between atoms: _352  and  _353
REMARK  144  A    between atoms: _356  and  _358
REMARK  145  A    between atoms: _358  and  _359
REMARK  146  A    between atoms: _358  and  _361
REMARK  147  A    between atoms: _361  and  _362
REMARK  148  A    between atoms: _365  and  _367
REMARK  149  A    between atoms: _367  and  _368
REMARK  150  A    between atoms: _370  and  _372
REMARK  151  A    between atoms: _372  and  _373
REMARK  152  A    between atoms: _376  and  _378
REMARK  153  A    between atoms: _378  and  _379
REMARK  154  A    between atoms: _378  and  _381
REMARK  155  A    between atoms: _381  and  _382
REMARK  156  A    between atoms: _385  and  _387
REMARK  157  A    between atoms: _387  and  _388
REMARK  158  A    between atoms: _387  and  _390
REMARK  159  A    between atoms: _390  and  _391
REMARK  160  A    between atoms: _394  and  _396
REMARK  161  A    between atoms: _396  and  _397
REMARK  162  A    between atoms: _396  and  _399
REMARK  163  A    between atoms: _399  and  _400
REMARK  164  A    between atoms: _403  and  _405
REMARK  165  A    between atoms: _405  and  _406
REMARK  166  A    between atoms: _405  and  _408
REMARK  167  A    between atoms: _411  and  _413
REMARK  168  A    between atoms: _413  and  _414
REMARK  169  A    between atoms: _413  and  _416
REMARK  170  A    between atoms: _416  and  _417
REMARK  171  A    between atoms: _417  and  _418
REMARK  172  A    between atoms: _418  and  _419
REMARK  173  A    between atoms: _419  and  _420
REMARK  174  A    between atoms: _424  and  _426
REMARK  175  A    between atoms: _426  and  _427
REMARK  176  A    between atoms: _426  and  _429
REMARK  177  A    between atoms: _429  and  _430
REMARK  178  A    between atoms: _430  and  _431
REMARK  179  A    between atoms: _433  and  _435
REMARK  180  A    between atoms: _435  and  _436
REMARK  181  A    between atoms: _435  and  _438
REMARK  182  A    between atoms: _438  and  _439
REMARK  183  A    between atoms: _442  and  _444
REMARK  184  A    between atoms: _444  and  _445
REMARK  185  A    between atoms: _447  and  _449
REMARK  186  A    between atoms: _449  and  _450
REMARK  187  A    between atoms: _452  and  _454
REMARK  188  A    between atoms: _454  and  _455
REMARK  189  A    between atoms: _454  and  _457
REMARK  190  A    between atoms: _457  and  _458
REMARK  191  A    between atoms: _461  and  _463
REMARK  192  A    between atoms: _463  and  _464
REMARK  193  A    between atoms: _466  and  _468
REMARK  194  A    between atoms: _468  and  _469
REMARK  195  A    between atoms: _471  and  _473
REMARK  196  A    between atoms: _473  and  _474
REMARK  197  A    between atoms: _473  and  _476
REMARK  198  A    between atoms: _476  and  _477
REMARK  199  A    between atoms: _480  and  _482
REMARK  200  A    between atoms: _482  and  _483
REMARK  201  A    between atoms: _482  and  _485
REMARK  202  A    between atoms: _488  and  _490
REMARK  203  A    between atoms: _490  and  _491
REMARK  204  A    between atoms: _490  and  _493
REMARK  205  A    between atoms: _493  and  _494
REMARK  206  A    between atoms: _498  and  _499
REMARK  207  A    between atoms: _504  and  _506
REMARK  208  A    between atoms: _506  and  _507
REMARK  209  A    between atoms: _506  and  _509
REMARK  210  A    between atoms: _509  and  _510
REMARK  211  A    between atoms: _514  and  _515
REMARK  212  A    between atoms: _520  and  _522
REMARK  213  A    between atoms: _522  and  _523
REMARK  214  A    between atoms: _522  and  _525
REMARK  215  A    between atoms: _525  and  _526
REMARK  216  A    between atoms: _532  and  _534
REMARK  217  A    between atoms: _534  and  _535
REMARK  218  A    between atoms: _534  and  _537
REMARK  219  A    between atoms: _537  and  _538
REMARK  220  A    between atoms: _543  and  _545
REMARK  221  A    between atoms: _545  and  _546
REMARK  222  A    between atoms: _545  and  _548
REMARK  223  A    between atoms: _551  and  _553
REMARK  224  A    between atoms: _553  and  _554
REMARK  225  A    between atoms: _553  and  _556
REMARK  226  A    between atoms: _556  and  _557
REMARK  227  A    between atoms: _560  and  _562
REMARK  228  A    between atoms: _562  and  _563
REMARK  229  A    between atoms: _565  and  _567
REMARK  230  A    between atoms: _567  and  _568
REMARK  231  A    between atoms: _567  and  _570
REMARK  232  A    between atoms: _570  and  _571
REMARK  233  A    between atoms: _571  and  _572
REMARK  234  A    between atoms: _572  and  _573
REMARK  235  A    between atoms: _582  and  _584
REMARK  236  A    between atoms: _584  and  _585
REMARK  237  A    between atoms: _584  and  _587
REMARK  238  A    between atoms: _587  and  _588
REMARK                            x       y       z     vdW  Elec       q    Type
REMARK                         _______ _______ _______ _____ _____    ______ ____
ROOT
ATOM      1  C   ALA A   6      18.017  30.675  17.327  0.00  0.00    +0.241 C 
ATOM      2  O   ALA A   6      17.346  31.701  17.355  0.00  0.00    -0.273 OA
ATOM      3  N   ASP A   7      19.349  30.687  17.319  0.00  0.00    -0.297 N 
ATOM      4  H   ASP A   7      19.871  29.788  17.313  0.00  0.00    +0.150 HD
ENDROOT
BRANCH   1   5
ATOM      5  CA  ALA A   6      17.332  29.311  17.296  0.00  0.00    +0.149 C 
ATOM      6  CB  ALA A   6      16.584  29.144  15.972  0.00  0.00    +0.031 C 
BRANCH   5   9
ATOM      7  C   GLY A   5      16.761  28.472  19.525  0.00  0.00    +0.243 C 
ATOM      8  O   GLY A   5      17.891  28.018  19.703  0.00  0.00    -0.273 OA
ATOM      9  N   ALA A   6      16.407  29.114  18.413  0.00  0.00    -0.297 N 
ATOM     10  H   ALA A   6      15.440  29.488  18.336  0.00  0.00    +0.150 HD
BRANCH   7  11
ATOM     11  CA  GLY A   5      15.688  28.323  20.598  0.00  0.00    +0.176 C 
BRANCH  11  14
ATOM     12  C   THR A   4      14.478  30.414  20.640  0.00  0.00    +0.243 C 
ATOM     13  O   THR A   4      15.439  30.990  21.143  0.00  0.00    -0.273 OA
ATOM     14  N   GLY A   5      14.496  29.119  20.341  0.00  0.00    -0.295 N 
ATOM     15  H   GLY A   5      13.655  28.672  19.922  0.00  0.00    +0.150 HD
BRANCH  12  16
ATOM     16  CA  THR A   4      13.191  31.178  20.331  0.00  0.00    +0.176 C 
BRANCH  16  18
ATOM     17  C   ASP A   3      12.729  30.371  18.079  0.00  0.00    +0.241 C 
ATOM     18  N   THR A   4      12.355  30.475  19.354  0.00  0.00    -0.295 N 
ATOM     19  H   THR A   4      11.456  30.051  19.660  0.00  0.00    +0.150 HD
ATOM     20  O   ASP A   3      13.790  30.833  17.660  0.00  0.00    -0.273 OA
BRANCH  17  21
ATOM     21  CA  ASP A   3      11.784  29.613  17.141  0.00  0.00    +0.160 C 
BRANCH  21  24
ATOM     22  C   LEU A   2       9.609  30.289  16.291  0.00  0.00    +0.241 C 
ATOM     23  O   LEU A   2       9.021  29.599  17.128  0.00  0.00    -0.273 OA
ATOM     24  N   ASP A   3      10.933  30.405  16.256  0.00  0.00    -0.297 N 
ATOM     25  H   ASP A   3      11.370  31.071  15.587  0.00  0.00    +0.150 HD
BRANCH  22  26
ATOM     26  CA  LEU A   2       8.828  31.076  15.239  0.00  0.00    +0.149 C 
BRANCH  26  28
ATOM     27  C   LEU A   1       9.026  29.327  13.557  0.00  0.00    +0.238 C 
ATOM     28  N   LEU A   2       8.260  30.038  14.379  0.00  0.00    -0.297 N 
ATOM     29  H   LEU A   2       7.237  29.853  14.411  0.00  0.00    +0.150 HD
ATOM     30  O   LEU A   1      10.235  29.521  13.439  0.00  0.00    -0.274 OA
BRANCH  27  31
ATOM     31  CA  LEU A   1       8.336  28.239  12.738  0.00  0.00    +0.145 C 
BRANCH  31  32
ATOM     32  N   LEU A   1       8.541  28.410  11.302  0.00  0.00    -0.238 NA
ATOM     33  H   LEU A   1       9.439  28.084  10.890  0.00  0.00    +0.142 HD
ENDBRANCH  31  32
BRANCH  31  34
ATOM     34  CB  LEU A   1       8.886  26.873  13.149  0.00  0.00    +0.026 C 
BRANCH  34  35
ATOM     35  CG  LEU A   1       8.808  26.417  14.605  0.00  0.00    +0.002 C 
ATOM     36  CD2 LEU A   1       7.358  26.192  14.993  0.00  0.00    +0.000 C 
ATOM     37  CD1 LEU A   1       9.605  25.122  14.765  0.00  0.00    +0.000 C 
ENDBRANCH  34  35
ENDBRANCH  31  34
ENDBRANCH  27  31
ENDBRANCH  26  28
BRANCH  26  38
ATOM     38  CB  LEU A   2       7.703  31.894  15.878  0.00  0.00    +0.029 C 
BRANCH  38  39
ATOM     39  CG  LEU A   2       6.803  32.624  14.874  0.00  0.00    +0.002 C 
ATOM     40  CD2 LEU A   2       5.697  33.354  15.610  0.00  0.00    +0.000 C 
ATOM     41  CD1 LEU A   2       7.632  33.599  14.044  0.00  0.00    +0.000 C 
ENDBRANCH  38  39
ENDBRANCH  26  38
ENDBRANCH  22  26
ENDBRANCH  21  24
BRANCH  21  42
ATOM     42  CB  ASP A   3      12.576  28.650  16.249  0.00  0.00    +0.143 C 
BRANCH  42  43
ATOM     43  CG  ASP A   3      13.451  27.700  17.026  0.00  0.00    +0.367 C 
ATOM     44  OD2 ASP A   3      13.353  27.670  18.267  0.00  0.00    -0.246 OA
ATOM     45  OD1 ASP A   3      14.234  26.974  16.373  0.00  0.00    -0.246 OA
ENDBRANCH  42  43
ENDBRANCH  21  42
ENDBRANCH  17  21
ENDBRANCH  16  18
BRANCH  16  46
ATOM     46  CB  THR A   4      12.446  31.420  21.665  0.00  0.00    +0.137 C 
ATOM     47  CG2 THR A   4      11.277  32.394  21.462  0.00  0.00    +0.034 C 
BRANCH  46  48
ATOM     48  OG1 THR A   4      11.960  30.173  22.180  0.00  0.00    -0.382 OA
ATOM     49  HG1 THR A   4      12.723  29.562  22.336  0.00  0.00    +0.210 HD
ENDBRANCH  46  48
ENDBRANCH  16  46
ENDBRANCH  12  16
ENDBRANCH  11  14
ENDBRANCH   7  11
ENDBRANCH   5   9
ENDBRANCH   1   5
BRANCH   3  50
ATOM     50  CA  ASP A   7      20.085  31.951  17.318  0.00  0.00    +0.160 C 
BRANCH  50  51
ATOM     51  C   ASP A   7      19.782  32.715  16.036  0.00  0.00    +0.241 C 
ATOM     52  O   ASP A   7      19.598  33.928  16.046  0.00  0.00    -0.273 OA
ATOM     53  N   ASP A   8      19.750  31.981  14.930  0.00  0.00    -0.297 N 
ATOM     54  H   ASP A   8      19.894  30.954  15.005  0.00  0.00    +0.150 HD
BRANCH  53  55
ATOM     55  CA  ASP A   8      19.521  32.563  13.620  0.00  0.00    +0.160 C 
BRANCH  55  56
ATOM     56  C   ASP A   8      18.382  31.920  12.847  0.00  0.00    +0.241 C 
ATOM     57  O   ASP A   8      17.813  30.912  13.260  0.00  0.00    -0.273 OA
ATOM     58  N   THR A   9      18.071  32.526  11.707  0.00  0.00    -0.295 N 
ATOM     59  H   THR A   9      18.608  33.373  11.431  0.00  0.00    +0.150 HD
BRANCH  58  60
ATOM     60  CA  THR A   9      17.015  32.057  10.831  0.00  0.00    +0.176 C 
BRANCH  60  61
ATOM     61  C   THR A   9      17.624  31.114   9.796  0.00  0.00    +0.243 C 
ATOM     62  N   VAL A  10      16.984  29.965   9.603  0.00  0.00    -0.297 N 
ATOM     63  H   VAL A  10      16.123  29.769  10.153  0.00  0.00    +0.150 HD
ATOM     64  O   THR A   9      18.660  31.419   9.199  0.00  0.00    -0.273 OA
BRANCH  62  65
ATOM     65  CA  VAL A  10      17.451  28.971   8.644  0.00  0.00    +0.149 C 
BRANCH  65  66
ATOM     66  C   VAL A  10      16.286  28.582   7.749  0.00  0.00    +0.241 C 
ATOM     67  O   VAL A  10      15.199  28.256   8.231  0.00  0.00    -0.273 OA
ATOM     68  N   ILE A  11      16.526  28.609   6.444  0.00  0.00    -0.298 N 
ATOM     69  H   ILE A  11      17.477  28.863   6.109  0.00  0.00    +0.150 HD
BRANCH  68  70
ATOM     70  CA  ILE A  11      15.493  28.292   5.469  0.00  0.00    +0.137 C 
BRANCH  70  71
ATOM     71  CB  ILE A  11      15.114  29.557   4.654  0.00  0.00    +0.026 C 
ATOM     72  CG2 ILE A  11      14.035  29.223   3.626  0.00  0.00    +0.002 C 
BRANCH  71  73
ATOM     73  CG1 ILE A  11      14.659  30.678   5.599  0.00  0.00    +0.002 C 
ATOM     74  CD1 ILE A  11      13.321  30.439   6.281  0.00  0.00    +0.000 C 
ENDBRANCH  71  73
ENDBRANCH  70  71
BRANCH  70  75
ATOM     75  C   ILE A  11      15.956  27.206   4.500  0.00  0.00    +0.227 C 
ATOM     76  O   ILE A  11      17.152  27.090   4.201  0.00  0.00    -0.286 OA
ENDBRANCH  70  75
ENDBRANCH  68  70
ENDBRANCH  65  66
BRANCH  65  77
ATOM     77  CB  VAL A  10      17.965  27.702   9.348  0.00  0.00    +0.027 C 
ATOM     78  CG2 VAL A  10      18.815  28.090  10.548  0.00  0.00    +0.002 C 
ATOM     79  CG1 VAL A  10      18.757  26.845   8.371  0.00  0.00    +0.002 C 
ENDBRANCH  65  77
ENDBRANCH  62  65
ENDBRANCH  60  61
BRANCH  60  80
ATOM     80  CB  THR A   9      16.336  33.246  10.125  0.00  0.00    +0.137 C 
ATOM     81  CG2 THR A   9      15.283  32.761   9.143  0.00  0.00    +0.034 C 
BRANCH  80  82
ATOM     82  OG1 THR A   9      15.711  34.081  11.110  0.00  0.00    -0.382 OA
ATOM     83  HG1 THR A   9      16.397  34.415  11.741  0.00  0.00    +0.210 HD
ENDBRANCH  80  82
ENDBRANCH  60  80
ENDBRANCH  58  60
ENDBRANCH  55  56
BRANCH  55  84
ATOM     84  CB  ASP A   8      20.801  32.467  12.790  0.00  0.00    +0.143 C 
BRANCH  84  85
ATOM     85  CG  ASP A   8      21.839  33.490  13.203  0.00  0.00    +0.367 C 
ATOM     86  OD2 ASP A   8      22.930  33.092  13.657  0.00  0.00    -0.246 OA
ATOM     87  OD1 ASP A   8      21.558  34.693  13.073  0.00  0.00    -0.246 OA
ENDBRANCH  84  85
ENDBRANCH  55  84
ENDBRANCH  53  55
ENDBRANCH  50  51
BRANCH  50  88
ATOM     88  CB  ASP A   7      21.604  31.732  17.359  0.00  0.00    +0.143 C 
BRANCH  88  89
ATOM     89  CG  ASP A   7      22.089  31.108  18.656  0.00  0.00    +0.367 C 
ATOM     90  OD2 ASP A   7      21.452  31.305  19.711  0.00  0.00    -0.246 OA
ATOM     91  OD1 ASP A   7      23.136  30.429  18.613  0.00  0.00    -0.246 OA
ENDBRANCH  88  89
ENDBRANCH  50  88
ENDBRANCH   3  50
TORSDOF 39
REMARK  Name = ../refined-set-2016/1msn/1msn_pocket.pdb
REMARK  238 active torsions:
REMARK  status: ('A' for Active; 'I' for Inactive)
REMARK    1  A    between atoms: _1  and  _3
REMARK    2  A    between atoms: _3  and  _4
REMARK    3  A    between atoms: _3  and  _6
REMARK    4  A    between atoms: _6  and  _7
REMARK    5  A    between atoms: _7  and  _8
REMARK    6  A    between atoms: _8  and  _9
REMARK    7  A    between atoms: _18  and  _20
REMARK    8  A    between atoms: _20  and  _21
REMARK    9  A    between atoms: _20  and  _23
REMARK   10  A    between atoms: _23  and  _24
REMARK   11  A    between atoms: _27  and  _29
REMARK   12  A    between atoms: _29  and  _30
REMARK   13  A    between atoms: _29  and  _32
REMARK   14  A    between atoms: _32  and  _33
REMARK   15  A    between atoms: _36  and  _38
REMARK   16  A    between atoms: _38  and  _39
REMARK   17  A    between atoms: _38  and  _41
REMARK   18  A    between atoms: _41  and  _42
REMARK   19  A    between atoms: _45  and  _47
REMARK   20  A    between atoms: _47  and  _48
REMARK   21  A    between atoms: _47  and  _50
REMARK   22  A    between atoms: _50  and  _51
REMARK   23  A    between atoms: _54  and  _56
REMARK   24  A    between atoms: _56  and  _57
REMARK   25  A    between atoms: _59  and  _61
REMARK   26  A    between atoms: _61  and  _62
REMARK   27  A    between atoms: _65  and  _67
REMARK   28  A    between atoms: _67  and  _68
REMARK   29  A    between atoms: _67  and  _70
REMARK   30  A    between atoms: _70  and  _71
REMARK   31  A    between atoms: _74  and  _76
REMARK   32  A    between atoms: _76  and  _77
REMARK   33  A    between atoms: _76  and  _79
REMARK   34  A    between atoms: _79  and  _80
REMARK   35  A    between atoms: _83  and  _85
REMARK   36  A    between atoms: _85  and  _86
REMARK   37  A    between atoms: _85  and  _88
REMARK   38  A    between atoms: _88  and  _89
REMARK   39  A    between atoms: _92  and  _94
REMARK   40  A    between atoms: _94  and  _95
REMARK   41  A    between atoms: _94  and  _97
REMARK   42  A    between atoms: _100  and  _102
REMARK   43  A    between atoms: _102  and  _103
REMARK   44  A    between atoms: _102  and  _105
REMARK   45  A    between atoms: _105  and  _106
REMARK   46  A    between atoms: _109  and  _111
REMARK   47  A    between atoms: _111  and  _112
REMARK   48  A    between atoms: _111  and  _114
REMARK   49  A    between atoms: _114  and  _115
REMARK   50  A    between atoms: _115  and  _116
REMARK   51  A    between atoms: _116  and  _117
REMARK   52  A    between atoms: _117  and  _118
REMARK   53  A    between atoms: _122  and  _124
REMARK   54  A    between atoms: _124  and  _125
REMARK   55  A    between atoms: _124  and  _127
REMARK   56  A    between atoms: _127  and  _128
REMARK   57  A    between atoms: _128  and  _129
REMARK   58  A    between atoms: _131  and  _133
REMARK   59  A    between atoms: _133  and  _134
REMARK   60  A    between atoms: _133  and  _136
REMARK   61  A    between atoms: _136  and  _137
REMARK   62  A    between atoms: _140  and  _142
REMARK   63  A    between atoms: _142  and  _143
REMARK   64  A    between atoms: _145  and  _147
REMARK   65  A    between atoms: _147  and  _148
REMARK   66  A    between atoms: _150  and  _152
REMARK   67  A    between atoms: _152  and  _153
REMARK   68  A    between atoms: _152  and  _155
REMARK   69  A    between atoms: _155  and  _156
REMARK   70  A    between atoms: _159  and  _161
REMARK   71  A    between atoms: _161  and  _162
REMARK   72  A    between atoms: _164  and  _166
REMARK   73  A    between atoms: _166  and  _167
REMARK   74  A    between atoms: _169  and  _171
REMARK   75  A    between atoms: _171  and  _172
REMARK   76  A    between atoms: _171  and  _174
REMARK   77  A    between atoms: _174  and  _175
REMARK   78  A    between atoms: _181  and  _183
REMARK   79  A    between atoms: _183  and  _184
REMARK   80  A    between atoms: _183  and  _186
REMARK   81  A    between atoms: _186  and  _187
REMARK   82  A    between atoms: _190  and  _192
REMARK   83  A    between atoms: _192  and  _193
REMARK   84  A    between atoms: _192  and  _195
REMARK   85  A    between atoms: _198  and  _200
REMARK   86  A    between atoms: _200  and  _201
REMARK   87  A    between atoms: _200  and  _203
REMARK   88  A    between atoms: _203  and  _204
REMARK   89  A    between atoms: _208  and  _209
REMARK   90  A    between atoms: _214  and  _216
REMARK   91  A    between atoms: _216  and  _217
REMARK   92  A    between atoms: _216  and  _219
REMARK   93  A    between atoms: _219  and  _220
REMARK   94  A    between atoms: _224  and  _225
REMARK   95  A    between atoms: _230  and  _232
REMARK   96  A    between atoms: _232  and  _233
REMARK   97  A    between atoms: _232  and  _235
REMARK   98  A    between atoms: _235  and  _236
REMARK   99  A    between atoms: _242  and  _244
REMARK  100  A    between atoms: _244  and  _245
REMARK  101  A    between atoms: _244  and  _247
REMARK  102  A    between atoms: _247  and  _248
REMARK  103  A    between atoms: _253  and  _255
REMARK  104  A    between atoms: _255  and  _256
REMARK  105  A    between atoms: _255  and  _258
REMARK  106  A    between atoms: _261  and  _263
REMARK  107  A    between atoms: _263  and  _264
REMARK  108  A    between atoms: _263  and  _266
REMARK  109  A    between atoms: _266  and  _267
REMARK  110  A    between atoms: _270  and  _272
REMARK  111  A    between atoms: _272  and  _273
REMARK  112  A    between atoms: _275  and  _277
REMARK  113  A    between atoms: _277  and  _278
REMARK  114  A    between atoms: _277  and  _280
REMARK  115  A    between atoms: _280  and  _281
REMARK  116  A    between atoms: _281  and  _282
REMARK  117  A    between atoms: _282  and  _283
REMARK  118  A    between atoms: _292  and  _294
REMARK  119  A    between atoms: _294  and  _295
REMARK  120  A    between atoms: _294  and  _297
REMARK  121  A    between atoms: _297  and  _298
REMARK  122  A    between atoms: _303  and  _305
REMARK  123  A    between atoms: _305  and  _306
REMARK  124  A    between atoms: _305  and  _308
REMARK  125  A    between atoms: _308  and  _309
REMARK  126  A    between atoms: _309  and  _310
REMARK  127  A    between atoms: _310  and  _311
REMARK  128  A    between atoms: _320  and  _322
REMARK  129  A    between atoms: _322  and  _323
REMARK  130  A    between atoms: _322  and  _325
REMARK  131  A    between atoms: _325  and  _326
REMARK  132  A    between atoms: _329  and  _331
REMARK  133  A    between atoms: _331  and  _332
REMARK  134  A    between atoms: _331  and  _334
REMARK  135  A    between atoms: _334  and  _335
REMARK  136  A    between atoms: _338  and  _340
REMARK  137  A    between atoms: _340  and  _341
REMARK  138  A    between atoms: _340  and  _343
REMARK  139  A    between atoms: _343  and  _344
REMARK  140  A    between atoms: _347  and  _349
REMARK  141  A    between atoms: _349  and  _350
REMARK  142  A    between atoms: _349  and  _352
REMARK  143  A    between atoms: _352  and  _353
REMARK  144  A    between atoms: _356  and  _358
REMARK  145  A    between atoms: _358  and  _359
REMARK  146  A    between atoms: _358  and  _361
REMARK  147  A    between atoms: _361  and  _362
REMARK  148  A    between atoms: _365  and  _367
REMARK  149  A    between atoms: _367  and  _368
REMARK  150  A    between atoms: _370  and  _372
REMARK  151  A    between atoms: _372  and  _373
REMARK  152  A    between atoms: _376  and  _378
REMARK  153  A    between atoms: _378  and  _379
REMARK  154  A    between atoms: _378  and  _381
REMARK  155  A    between atoms: _381  and  _382
REMARK  156  A    between atoms: _385  and  _387
REMARK  157  A    between atoms: _387  and  _388
REMARK  158  A    between atoms: _387  and  _390
REMARK  159  A    between atoms: _390  and  _391
REMARK  160  A    between atoms: _394  and  _396
REMARK  161  A    between atoms: _396  and  _397
REMARK  162  A    between atoms: _396  and  _399
REMARK  163  A    between atoms: _399  and  _400
REMARK  164  A    between atoms: _403  and  _405
REMARK  165  A    between atoms: _405  and  _406
REMARK  166  A    between atoms: _405  and  _408
REMARK  167  A    between atoms: _411  and  _413
REMARK  168  A    between atoms: _413  and  _414
REMARK  169  A    between atoms: _413  and  _416
REMARK  170  A    between atoms: _416  and  _417
REMARK  171  A    between atoms: _417  and  _418
REMARK  172  A    between atoms: _418  and  _419
REMARK  173  A    between atoms: _419  and  _420
REMARK  174  A    between atoms: _424  and  _426
REMARK  175  A    between atoms: _426  and  _427
REMARK  176  A    between atoms: _426  and  _429
REMARK  177  A    between atoms: _429  and  _430
REMARK  178  A    between atoms: _430  and  _431
REMARK  179  A    between atoms: _433  and  _435
REMARK  180  A    between atoms: _435  and  _436
REMARK  181  A    between atoms: _435  and  _438
REMARK  182  A    between atoms: _438  and  _439
REMARK  183  A    between atoms: _442  and  _444
REMARK  184  A    between atoms: _444  and  _445
REMARK  185  A    between atoms: _447  and  _449
REMARK  186  A    between atoms: _449  and  _450
REMARK  187  A    between atoms: _452  and  _454
REMARK  188  A    between atoms: _454  and  _455
REMARK  189  A    between atoms: _454  and  _457
REMARK  190  A    between atoms: _457  and  _458
REMARK  191  A    between atoms: _461  and  _463
REMARK  192  A    between atoms: _463  and  _464
REMARK  193  A    between atoms: _466  and  _468
REMARK  194  A    between atoms: _468  and  _469
REMARK  195  A    between atoms: _471  and  _473
REMARK  196  A    between atoms: _473  and  _474
REMARK  197  A    between atoms: _473  and  _476
REMARK  198  A    between atoms: _476  and  _477
REMARK  199  A    between atoms: _480  and  _482
REMARK  200  A    between atoms: _482  and  _483
REMARK  201  A    between atoms: _482  and  _485
REMARK  202  A    between atoms: _488  and  _490
REMARK  203  A    between atoms: _490  and  _491
REMARK  204  A    between atoms: _490  and  _493
REMARK  205  A    between atoms: _493  and  _494
REMARK  206  A    between atoms: _498  and  _499
REMARK  207  A    between atoms: _504  and  _506
REMARK  208  A    between atoms: _506  and  _507
REMARK  209  A    between atoms: _506  and  _509
REMARK  210  A    between atoms: _509  and  _510
REMARK  211  A    between atoms: _514  and  _515
REMARK  212  A    between atoms: _520  and  _522
REMARK  213  A    between atoms: _522  and  _523
REMARK  214  A    between atoms: _522  and  _525
REMARK  215  A    between atoms: _525  and  _526
REMARK  216  A    between atoms: _532  and  _534
REMARK  217  A    between atoms: _534  and  _535
REMARK  218  A    between atoms: _534  and  _537
REMARK  219  A    between atoms: _537  and  _538
REMARK  220  A    between atoms: _543  and  _545
REMARK  221  A    between atoms: _545  and  _546
REMARK  222  A    between atoms: _545  and  _548
REMARK  223  A    between atoms: _551  and  _553
REMARK  224  A    between atoms: _553  and  _554
REMARK  225  A    between atoms: _553  and  _556
REMARK  226  A    between atoms: _556  and  _557
REMARK  227  A    between atoms: _560  and  _562
REMARK  228  A    between atoms: _562  and  _563
REMARK  229  A    between atoms: _565  and  _567
REMARK  230  A    between atoms: _567  and  _568
REMARK  231  A    between atoms: _567  and  _570
REMARK  232  A    between atoms: _570  and  _571
REMARK  233  A    between atoms: _571  and  _572
REMARK  234  A    between atoms: _572  and  _573
REMARK  235  A    between atoms: _582  and  _584
REMARK  236  A    between atoms: _584  and  _585
REMARK  237  A    between atoms: _584  and  _587
REMARK  238  A    between atoms: _587  and  _588
REMARK                            x       y       z     vdW  Elec       q    Type
REMARK                         _______ _______ _______ _____ _____    ______ ____
ROOT
ATOM      1  C   GLY A   5      21.076  19.720  17.592  0.00  0.00    +0.243 C 
ATOM      2  N   ILE A   6      19.847  19.349  17.930  0.00  0.00    -0.297 N 
ATOM      3  H   ILE A   6      19.099  20.066  18.026  0.00  0.00    +0.150 HD
ATOM      4  O   GLY A   5      22.005  18.915  17.489  0.00  0.00    -0.273 OA
ENDROOT
BRANCH   1   5
ATOM      5  CA  GLY A   5      21.315  21.195  17.335  0.00  0.00    +0.176 C 
BRANCH   5   8
ATOM      6  C   GLY A   4      23.092  22.405  16.186  0.00  0.00    +0.243 C 
ATOM      7  O   GLY A   4      22.891  23.455  16.806  0.00  0.00    -0.273 OA
ATOM      8  N   GLY A   5      22.396  21.288  16.370  0.00  0.00    -0.295 N 
ATOM      9  H   GLY A   5      22.634  20.450  15.802  0.00  0.00    +0.150 HD
BRANCH   6  10
ATOM     10  CA  GLY A   4      24.180  22.295  15.141  0.00  0.00    +0.176 C 
BRANCH  10  12
ATOM     11  C   ILE A   3      24.675  23.623  13.209  0.00  0.00    +0.241 C 
ATOM     12  N   GLY A   4      24.607  23.536  14.531  0.00  0.00    -0.295 N 
ATOM     13  H   GLY A   4      24.858  24.353  15.124  0.00  0.00    +0.150 HD
ATOM     14  O   ILE A   3      24.377  22.694  12.461  0.00  0.00    -0.273 OA
BRANCH  11  15
ATOM     15  CA  ILE A   3      25.160  24.943  12.648  0.00  0.00    +0.149 C 
BRANCH  15  18
ATOM     16  C   MET A   2      27.199  25.190  11.374  0.00  0.00    +0.241 C 
ATOM     17  O   MET A   2      27.671  25.948  12.219  0.00  0.00    -0.273 OA
ATOM     18  N   ILE A   3      25.985  24.666  11.480  0.00  0.00    -0.297 N 
ATOM     19  H   ILE A   3      25.620  24.053  10.724  0.00  0.00    +0.150 HD
BRANCH  16  20
ATOM     20  CA  MET A   2      28.006  24.825  10.138  0.00  0.00    +0.149 C 
BRANCH  20  22
ATOM     21  C   LYS A   1      28.207  26.480   8.372  0.00  0.00    +0.238 C 
ATOM     22  N   MET A   2      28.540  26.061   9.585  0.00  0.00    -0.297 N 
ATOM     23  H   MET A   2      29.199  26.629  10.155  0.00  0.00    +0.150 HD
ATOM     24  O   LYS A   1      27.471  25.841   7.623  0.00  0.00    -0.274 OA
BRANCH  21  25
ATOM     25  CA  LYS A   1      28.812  27.803   7.926  0.00  0.00    +0.145 C 
BRANCH  25  26
ATOM     26  N   LYS A   1      28.928  27.807   6.478  0.00  0.00    -0.238 NA
ATOM     27  H   LYS A   1      28.343  27.151   5.921  0.00  0.00    +0.142 HD
ENDBRANCH  25  26
BRANCH  25  28
ATOM     28  CB  LYS A   1      27.933  28.968   8.406  0.00  0.00    +0.026 C 
BRANCH  28  29
ATOM     29  CG  LYS A   1      27.750  28.994   9.915  0.00  0.00    -0.000 C 
BRANCH  29  30
ATOM     30  CD  LYS A   1      27.116  30.279  10.421  0.00  0.00    -0.024 C 
BRANCH  30  31
ATOM     31  CE  LYS A   1      27.054  30.267  11.945  0.00  0.00    -0.086 C 
BRANCH  31  32
ATOM     32  NZ  LYS A   1      26.703  31.590  12.522  0.00  0.00    +0.380 N 
ATOM     33  HZ1 LYS A   1      26.676  31.518  13.559  0.00  0.00    -0.089 HD
ATOM     34  HZ2 LYS A   1      27.418  32.291  12.240  0.00  0.00    -0.089 HD
ATOM     35  HZ3 LYS A   1      25.770  31.884  12.170  0.00  0.00    -0.089 HD
ENDBRANCH  31  32
ENDBRANCH  30  31
ENDBRANCH  29  30
ENDBRANCH  28  29
ENDBRANCH  25  28
ENDBRANCH  21  25
ENDBRANCH  20  22
BRANCH  20  36
ATOM     36  CB  MET A   2      29.136  23.881  10.550  0.00  0.00    +0.041 C 
BRANCH  36  37
ATOM     37  CG  MET A   2      29.876  23.234   9.400  0.00  0.00    +0.060 C 
BRANCH  37  38
ATOM     38  SD  MET A   2      28.979  21.822   8.774  0.00  0.00    -0.139 S 
ATOM     39  CE  MET A   2      29.628  20.522   9.848  0.00  0.00    +0.069 C 
ENDBRANCH  37  38
ENDBRANCH  36  37
ENDBRANCH  20  36
ENDBRANCH  16  20
ENDBRANCH  15  18
BRANCH  15  40
ATOM     40  CB  ILE A   3      23.950  25.850  12.313  0.00  0.00    +0.027 C 
ATOM     41  CG2 ILE A   3      24.448  27.238  11.904  0.00  0.00    +0.002 C 
BRANCH  40  42
ATOM     42  CG1 ILE A   3      23.103  25.225  11.205  0.00  0.00    +0.002 C 
ATOM     43  CD1 ILE A   3      21.872  26.052  10.842  0.00  0.00    +0.000 C 
ENDBRANCH  40  42
ENDBRANCH  15  40
ENDBRANCH  11  15
ENDBRANCH  10  12
ENDBRANCH   6  10
ENDBRANCH   5   8
ENDBRANCH   1   5
BRANCH   2  44
ATOM     44  CA  ILE A   6      19.538  17.945  18.168  0.00  0.00    +0.149 C 
BRANCH  44  45
ATOM     45  C   ILE A   6      19.823  17.176  16.880  0.00  0.00    +0.241 C 
ATOM     46  N   GLY A   7      20.595  16.099  16.980  0.00  0.00    -0.295 N 
ATOM     47  H   GLY A   7      20.980  15.818  17.904  0.00  0.00    +0.150 HD
ATOM     48  O   ILE A   6      19.362  17.562  15.808  0.00  0.00    -0.273 OA
BRANCH  46  49
ATOM     49  CA  GLY A   7      20.900  15.316  15.796  0.00  0.00    +0.176 C 
BRANCH  49  50
ATOM     50  C   GLY A   7      22.223  15.641  15.126  0.00  0.00    +0.243 C 
ATOM     51  N   GLY A   8      22.840  16.754  15.505  0.00  0.00    -0.295 N 
ATOM     52  H   GLY A   8      22.412  17.373  16.222  0.00  0.00    +0.150 HD
ATOM     53  O   GLY A   7      22.680  14.896  14.261  0.00  0.00    -0.273 OA
BRANCH  51  54
ATOM     54  CA  GLY A   8      24.119  17.098  14.908  0.00  0.00    +0.176 C 
BRANCH  54  55
ATOM     55  C   GLY A   8      24.141  18.394  14.122  0.00  0.00    +0.243 C 
ATOM     56  O   GLY A   8      23.274  19.253  14.292  0.00  0.00    -0.273 OA
ATOM     57  N   PHE A   9      25.131  18.520  13.243  0.00  0.00    -0.297 N 
ATOM     58  H   PHE A   9      25.802  17.734  13.127  0.00  0.00    +0.150 HD
BRANCH  57  59
ATOM     59  CA  PHE A   9      25.310  19.725  12.433  0.00  0.00    +0.153 C 
BRANCH  59  60
ATOM     60  C   PHE A   9      24.971  19.576  10.954  0.00  0.00    +0.241 C 
ATOM     61  O   PHE A   9      25.055  18.486  10.385  0.00  0.00    -0.273 OA
ATOM     62  N   ILE A  10      24.585  20.687  10.336  0.00  0.00    -0.298 N 
ATOM     63  H   ILE A  10      24.468  21.562  10.886  0.00  0.00    +0.150 HD
BRANCH  62  64
ATOM     64  CA  ILE A  10      24.323  20.704   8.904  0.00  0.00    +0.137 C 
BRANCH  64  65
ATOM     65  CB  ILE A  10      22.816  20.883   8.543  0.00  0.00    +0.026 C 
ATOM     66  CG2 ILE A  10      22.015  19.680   9.047  0.00  0.00    +0.002 C 
BRANCH  65  67
ATOM     67  CG1 ILE A  10      22.280  22.204   9.106  0.00  0.00    +0.002 C 
ATOM     68  CD1 ILE A  10      20.859  22.537   8.653  0.00  0.00    +0.000 C 
ENDBRANCH  65  67
ENDBRANCH  64  65
BRANCH  64  69
ATOM     69  C   ILE A  10      25.103  21.894   8.365  0.00  0.00    +0.227 C 
ATOM     70  O   ILE A  10      25.367  22.856   9.096  0.00  0.00    -0.286 OA
ENDBRANCH  64  69
ENDBRANCH  62  64
ENDBRANCH  59  60
BRANCH  59  71
ATOM     71  CB  PHE A   9      26.768  20.196  12.509  0.00  0.00    +0.055 C 
BRANCH  71  72
ATOM     72  CG  PHE A   9      27.194  20.691  13.862  0.00  0.00    -0.020 A 
ATOM     73  CD2 PHE A   9      27.322  19.817  14.932  0.00  0.00    -0.004 A 
ATOM     74  CE2 PHE A   9      27.739  20.274  16.176  0.00  0.00    -0.000 A 
ATOM     75  CZ  PHE A   9      28.022  21.625  16.360  0.00  0.00    -0.000 A 
ATOM     76  CE1 PHE A   9      27.896  22.509  15.297  0.00  0.00    -0.000 A 
ATOM     77  CD1 PHE A   9      27.479  22.039  14.057  0.00  0.00    -0.004 A 
ENDBRANCH  71  72
ENDBRANCH  59  71
ENDBRANCH  57  59
ENDBRANCH  54  55
ENDBRANCH  51  54
ENDBRANCH  49  50
ENDBRANCH  46  49
ENDBRANCH  44  45
BRANCH  44  78
ATOM     78  CB  ILE A   6      18.053  17.761  18.554  0.00  0.00    +0.027 C 
ATOM     79  CG2 ILE A   6      17.675  16.284  18.501  0.00  0.00    +0.002 C 
BRANCH  78  80
ATOM     80  CG1 ILE A   6      17.800  18.339  19.949  0.00  0.00    +0.002 C 
ATOM     81  CD1 ILE A   6      18.583  17.665  21.041  0.00  0.00    +0.000 C 
ENDBRANCH  78  80
ENDBRANCH  44  78
ENDBRANCH   2  44
TORSDOF 36
REMARK  Name = ../refined-set-2016/1msn/1msn_pocket.pdb
REMARK  238 active torsions:
REMARK  status: ('A' for Active; 'I' for Inactive)
REMARK    1  A    between atoms: _1  and  _3
REMARK    2  A    between atoms: _3  and  _4
REMARK    3  A    between atoms: _3  and  _6
REMARK    4  A    between atoms: _6  and  _7
REMARK    5  A    between atoms: _7  and  _8
REMARK    6  A    between atoms: _8  and  _9
REMARK    7  A    between atoms: _18  and  _20
REMARK    8  A    between atoms: _20  and  _21
REMARK    9  A    between atoms: _20  and  _23
REMARK   10  A    between atoms: _23  and  _24
REMARK   11  A    between atoms: _27  and  _29
REMARK   12  A    between atoms: _29  and  _30
REMARK   13  A    between atoms: _29  and  _32
REMARK   14  A    between atoms: _32  and  _33
REMARK   15  A    between atoms: _36  and  _38
REMARK   16  A    between atoms: _38  and  _39
REMARK   17  A    between atoms: _38  and  _41
REMARK   18  A    between atoms: _41  and  _42
REMARK   19  A    between atoms: _45  and  _47
REMARK   20  A    between atoms: _47  and  _48
REMARK   21  A    between atoms: _47  and  _50
REMARK   22  A    between atoms: _50  and  _51
REMARK   23  A    between atoms: _54  and  _56
REMARK   24  A    between atoms: _56  and  _57
REMARK   25  A    between atoms: _59  and  _61
REMARK   26  A    between atoms: _61  and  _62
REMARK   27  A    between atoms: _65  and  _67
REMARK   28  A    between atoms: _67  and  _68
REMARK   29  A    between atoms: _67  and  _70
REMARK   30  A    between atoms: _70  and  _71
REMARK   31  A    between atoms: _74  and  _76
REMARK   32  A    between atoms: _76  and  _77
REMARK   33  A    between atoms: _76  and  _79
REMARK   34  A    between atoms: _79  and  _80
REMARK   35  A    between atoms: _83  and  _85
REMARK   36  A    between atoms: _85  and  _86
REMARK   37  A    between atoms: _85  and  _88
REMARK   38  A    between atoms: _88  and  _89
REMARK   39  A    between atoms: _92  and  _94
REMARK   40  A    between atoms: _94  and  _95
REMARK   41  A    between atoms: _94  and  _97
REMARK   42  A    between atoms: _100  and  _102
REMARK   43  A    between atoms: _102  and  _103
REMARK   44  A    between atoms: _102  and  _105
REMARK   45  A    between atoms: _105  and  _106
REMARK   46  A    between atoms: _109  and  _111
REMARK   47  A    between atoms: _111  and  _112
REMARK   48  A    between atoms: _111  and  _114
REMARK   49  A    between atoms: _114  and  _115
REMARK   50  A    between atoms: _115  and  _116
REMARK   51  A    between atoms: _116  and  _117
REMARK   52  A    between atoms: _117  and  _118
REMARK   53  A    between atoms: _122  and  _124
REMARK   54  A    between atoms: _124  and  _125
REMARK   55  A    between atoms: _124  and  _127
REMARK   56  A    between atoms: _127  and  _128
REMARK   57  A    between atoms: _128  and  _129
REMARK   58  A    between atoms: _131  and  _133
REMARK   59  A    between atoms: _133  and  _134
REMARK   60  A    between atoms: _133  and  _136
REMARK   61  A    between atoms: _136  and  _137
REMARK   62  A    between atoms: _140  and  _142
REMARK   63  A    between atoms: _142  and  _143
REMARK   64  A    between atoms: _145  and  _147
REMARK   65  A    between atoms: _147  and  _148
REMARK   66  A    between atoms: _150  and  _152
REMARK   67  A    between atoms: _152  and  _153
REMARK   68  A    between atoms: _152  and  _155
REMARK   69  A    between atoms: _155  and  _156
REMARK   70  A    between atoms: _159  and  _161
REMARK   71  A    between atoms: _161  and  _162
REMARK   72  A    between atoms: _164  and  _166
REMARK   73  A    between atoms: _166  and  _167
REMARK   74  A    between atoms: _169  and  _171
REMARK   75  A    between atoms: _171  and  _172
REMARK   76  A    between atoms: _171  and  _174
REMARK   77  A    between atoms: _174  and  _175
REMARK   78  A    between atoms: _181  and  _183
REMARK   79  A    between atoms: _183  and  _184
REMARK   80  A    between atoms: _183  and  _186
REMARK   81  A    between atoms: _186  and  _187
REMARK   82  A    between atoms: _190  and  _192
REMARK   83  A    between atoms: _192  and  _193
REMARK   84  A    between atoms: _192  and  _195
REMARK   85  A    between atoms: _198  and  _200
REMARK   86  A    between atoms: _200  and  _201
REMARK   87  A    between atoms: _200  and  _203
REMARK   88  A    between atoms: _203  and  _204
REMARK   89  A    between atoms: _208  and  _209
REMARK   90  A    between atoms: _214  and  _216
REMARK   91  A    between atoms: _216  and  _217
REMARK   92  A    between atoms: _216  and  _219
REMARK   93  A    between atoms: _219  and  _220
REMARK   94  A    between atoms: _224  and  _225
REMARK   95  A    between atoms: _230  and  _232
REMARK   96  A    between atoms: _232  and  _233
REMARK   97  A    between atoms: _232  and  _235
REMARK   98  A    between atoms: _235  and  _236
REMARK   99  A    between atoms: _242  and  _244
REMARK  100  A    between atoms: _244  and  _245
REMARK  101  A    between atoms: _244  and  _247
REMARK  102  A    between atoms: _247  and  _248
REMARK  103  A    between atoms: _253  and  _255
REMARK  104  A    between atoms: _255  and  _256
REMARK  105  A    between atoms: _255  and  _258
REMARK  106  A    between atoms: _261  and  _263
REMARK  107  A    between atoms: _263  and  _264
REMARK  108  A    between atoms: _263  and  _266
REMARK  109  A    between atoms: _266  and  _267
REMARK  110  A    between atoms: _270  and  _272
REMARK  111  A    between atoms: _272  and  _273
REMARK  112  A    between atoms: _275  and  _277
REMARK  113  A    between atoms: _277  and  _278
REMARK  114  A    between atoms: _277  and  _280
REMARK  115  A    between atoms: _280  and  _281
REMARK  116  A    between atoms: _281  and  _282
REMARK  117  A    between atoms: _282  and  _283
REMARK  118  A    between atoms: _292  and  _294
REMARK  119  A    between atoms: _294  and  _295
REMARK  120  A    between atoms: _294  and  _297
REMARK  121  A    between atoms: _297  and  _298
REMARK  122  A    between atoms: _303  and  _305
REMARK  123  A    between atoms: _305  and  _306
REMARK  124  A    between atoms: _305  and  _308
REMARK  125  A    between atoms: _308  and  _309
REMARK  126  A    between atoms: _309  and  _310
REMARK  127  A    between atoms: _310  and  _311
REMARK  128  A    between atoms: _320  and  _322
REMARK  129  A    between atoms: _322  and  _323
REMARK  130  A    between atoms: _322  and  _325
REMARK  131  A    between atoms: _325  and  _326
REMARK  132  A    between atoms: _329  and  _331
REMARK  133  A    between atoms: _331  and  _332
REMARK  134  A    between atoms: _331  and  _334
REMARK  135  A    between atoms: _334  and  _335
REMARK  136  A    between atoms: _338  and  _340
REMARK  137  A    between atoms: _340  and  _341
REMARK  138  A    between atoms: _340  and  _343
REMARK  139  A    between atoms: _343  and  _344
REMARK  140  A    between atoms: _347  and  _349
REMARK  141  A    between atoms: _349  and  _350
REMARK  142  A    between atoms: _349  and  _352
REMARK  143  A    between atoms: _352  and  _353
REMARK  144  A    between atoms: _356  and  _358
REMARK  145  A    between atoms: _358  and  _359
REMARK  146  A    between atoms: _358  and  _361
REMARK  147  A    between atoms: _361  and  _362
REMARK  148  A    between atoms: _365  and  _367
REMARK  149  A    between atoms: _367  and  _368
REMARK  150  A    between atoms: _370  and  _372
REMARK  151  A    between atoms: _372  and  _373
REMARK  152  A    between atoms: _376  and  _378
REMARK  153  A    between atoms: _378  and  _379
REMARK  154  A    between atoms: _378  and  _381
REMARK  155  A    between atoms: _381  and  _382
REMARK  156  A    between atoms: _385  and  _387
REMARK  157  A    between atoms: _387  and  _388
REMARK  158  A    between atoms: _387  and  _390
REMARK  159  A    between atoms: _390  and  _391
REMARK  160  A    between atoms: _394  and  _396
REMARK  161  A    between atoms: _396  and  _397
REMARK  162  A    between atoms: _396  and  _399
REMARK  163  A    between atoms: _399  and  _400
REMARK  164  A    between atoms: _403  and  _405
REMARK  165  A    between atoms: _405  and  _406
REMARK  166  A    between atoms: _405  and  _408
REMARK  167  A    between atoms: _411  and  _413
REMARK  168  A    between atoms: _413  and  _414
REMARK  169  A    between atoms: _413  and  _416
REMARK  170  A    between atoms: _416  and  _417
REMARK  171  A    between atoms: _417  and  _418
REMARK  172  A    between atoms: _418  and  _419
REMARK  173  A    between atoms: _419  and  _420
REMARK  174  A    between atoms: _424  and  _426
REMARK  175  A    between atoms: _426  and  _427
REMARK  176  A    between atoms: _426  and  _429
REMARK  177  A    between atoms: _429  and  _430
REMARK  178  A    between atoms: _430  and  _431
REMARK  179  A    between atoms: _433  and  _435
REMARK  180  A    between atoms: _435  and  _436
REMARK  181  A    between atoms: _435  and  _438
REMARK  182  A    between atoms: _438  and  _439
REMARK  183  A    between atoms: _442  and  _444
REMARK  184  A    between atoms: _444  and  _445
REMARK  185  A    between atoms: _447  and  _449
REMARK  186  A    between atoms: _449  and  _450
REMARK  187  A    between atoms: _452  and  _454
REMARK  188  A    between atoms: _454  and  _455
REMARK  189  A    between atoms: _454  and  _457
REMARK  190  A    between atoms: _457  and  _458
REMARK  191  A    between atoms: _461  and  _463
REMARK  192  A    between atoms: _463  and  _464
REMARK  193  A    between atoms: _466  and  _468
REMARK  194  A    between atoms: _468  and  _469
REMARK  195  A    between atoms: _471  and  _473
REMARK  196  A    between atoms: _473  and  _474
REMARK  197  A    between atoms: _473  and  _476
REMARK  198  A    between atoms: _476  and  _477
REMARK  199  A    between atoms: _480  and  _482
REMARK  200  A    between atoms: _482  and  _483
REMARK  201  A    between atoms: _482  and  _485
REMARK  202  A    between atoms: _488  and  _490
REMARK  203  A    between atoms: _490  and  _491
REMARK  204  A    between atoms: _490  and  _493
REMARK  205  A    between atoms: _493  and  _494
REMARK  206  A    between atoms: _498  and  _499
REMARK  207  A    between atoms: _504  and  _506
REMARK  208  A    between atoms: _506  and  _507
REMARK  209  A    between atoms: _506  and  _509
REMARK  210  A    between atoms: _509  and  _510
REMARK  211  A    between atoms: _514  and  _515
REMARK  212  A    between atoms: _520  and  _522
REMARK  213  A    between atoms: _522  and  _523
REMARK  214  A    between atoms: _522  and  _525
REMARK  215  A    between atoms: _525  and  _526
REMARK  216  A    between atoms: _532  and  _534
REMARK  217  A    between atoms: _534  and  _535
REMARK  218  A    between atoms: _534  and  _537
REMARK  219  A    between atoms: _537  and  _538
REMARK  220  A    between atoms: _543  and  _545
REMARK  221  A    between atoms: _545  and  _546
REMARK  222  A    between atoms: _545  and  _548
REMARK  223  A    between atoms: _551  and  _553
REMARK  224  A    between atoms: _553  and  _554
REMARK  225  A    between atoms: _553  and  _556
REMARK  226  A    between atoms: _556  and  _557
REMARK  227  A    between atoms: _560  and  _562
REMARK  228  A    between atoms: _562  and  _563
REMARK  229  A    between atoms: _565  and  _567
REMARK  230  A    between atoms: _567  and  _568
REMARK  231  A    between atoms: _567  and  _570
REMARK  232  A    between atoms: _570  and  _571
REMARK  233  A    between atoms: _571  and  _572
REMARK  234  A    between atoms: _572  and  _573
REMARK  235  A    between atoms: _582  and  _584
REMARK  236  A    between atoms: _584  and  _585
REMARK  237  A    between atoms: _584  and  _587
REMARK  238  A    between atoms: _587  and  _588
REMARK                            x       y       z     vdW  Elec       q    Type
REMARK                         _______ _______ _______ _____ _____    ______ ____
ROOT
ATOM      1  CA  VAL A   1      24.432  26.077   5.354  0.00  0.00    +0.133 C 
ENDROOT
BRANCH   1   2
ATOM      2  CB  VAL A   1      23.484  26.697   6.420  0.00  0.00    +0.023 C 
ATOM      3  CG2 VAL A   1      24.299  27.402   7.494  0.00  0.00    +0.002 C 
ATOM      4  CG1 VAL A   1      22.609  25.613   7.056  0.00  0.00    +0.002 C 
ENDBRANCH   1   2
BRANCH   1   5
ATOM      5  N   VAL A   1      25.359  25.120   5.951  0.00  0.00    -0.239 NA
ATOM      6  H   VAL A   1      26.168  25.471   6.503  0.00  0.00    +0.142 HD
ENDBRANCH   1   5
BRANCH   1   7
ATOM      7  C   VAL A   1      25.204  27.219   4.698  0.00  0.00    +0.224 C 
ATOM      8  O   VAL A   1      26.396  27.385   4.938  0.00  0.00    -0.287 OA
ENDBRANCH   1   7
TORSDOF 3
REMARK  Name = ../refined-set-2016/1msn/1msn_pocket.pdb
REMARK  238 active torsions:
REMARK  status: ('A' for Active; 'I' for Inactive)
REMARK    1  A    between atoms: _1  and  _3
REMARK    2  A    between atoms: _3  and  _4
REMARK    3  A    between atoms: _3  and  _6
REMARK    4  A    between atoms: _6  and  _7
REMARK    5  A    between atoms: _7  and  _8
REMARK    6  A    between atoms: _8  and  _9
REMARK    7  A    between atoms: _18  and  _20
REMARK    8  A    between atoms: _20  and  _21
REMARK    9  A    between atoms: _20  and  _23
REMARK   10  A    between atoms: _23  and  _24
REMARK   11  A    between atoms: _27  and  _29
REMARK   12  A    between atoms: _29  and  _30
REMARK   13  A    between atoms: _29  and  _32
REMARK   14  A    between atoms: _32  and  _33
REMARK   15  A    between atoms: _36  and  _38
REMARK   16  A    between atoms: _38  and  _39
REMARK   17  A    between atoms: _38  and  _41
REMARK   18  A    between atoms: _41  and  _42
REMARK   19  A    between atoms: _45  and  _47
REMARK   20  A    between atoms: _47  and  _48
REMARK   21  A    between atoms: _47  and  _50
REMARK   22  A    between atoms: _50  and  _51
REMARK   23  A    between atoms: _54  and  _56
REMARK   24  A    between atoms: _56  and  _57
REMARK   25  A    between atoms: _59  and  _61
REMARK   26  A    between atoms: _61  and  _62
REMARK   27  A    between atoms: _65  and  _67
REMARK   28  A    between atoms: _67  and  _68
REMARK   29  A    between atoms: _67  and  _70
REMARK   30  A    between atoms: _70  and  _71
REMARK   31  A    between atoms: _74  and  _76
REMARK   32  A    between atoms: _76  and  _77
REMARK   33  A    between atoms: _76  and  _79
REMARK   34  A    between atoms: _79  and  _80
REMARK   35  A    between atoms: _83  and  _85
REMARK   36  A    between atoms: _85  and  _86
REMARK   37  A    between atoms: _85  and  _88
REMARK   38  A    between atoms: _88  and  _89
REMARK   39  A    between atoms: _92  and  _94
REMARK   40  A    between atoms: _94  and  _95
REMARK   41  A    between atoms: _94  and  _97
REMARK   42  A    between atoms: _100  and  _102
REMARK   43  A    between atoms: _102  and  _103
REMARK   44  A    between atoms: _102  and  _105
REMARK   45  A    between atoms: _105  and  _106
REMARK   46  A    between atoms: _109  and  _111
REMARK   47  A    between atoms: _111  and  _112
REMARK   48  A    between atoms: _111  and  _114
REMARK   49  A    between atoms: _114  and  _115
REMARK   50  A    between atoms: _115  and  _116
REMARK   51  A    between atoms: _116  and  _117
REMARK   52  A    between atoms: _117  and  _118
REMARK   53  A    between atoms: _122  and  _124
REMARK   54  A    between atoms: _124  and  _125
REMARK   55  A    between atoms: _124  and  _127
REMARK   56  A    between atoms: _127  and  _128
REMARK   57  A    between atoms: _128  and  _129
REMARK   58  A    between atoms: _131  and  _133
REMARK   59  A    between atoms: _133  and  _134
REMARK   60  A    between atoms: _133  and  _136
REMARK   61  A    between atoms: _136  and  _137
REMARK   62  A    between atoms: _140  and  _142
REMARK   63  A    between atoms: _142  and  _143
REMARK   64  A    between atoms: _145  and  _147
REMARK   65  A    between atoms: _147  and  _148
REMARK   66  A    between atoms: _150  and  _152
REMARK   67  A    between atoms: _152  and  _153
REMARK   68  A    between atoms: _152  and  _155
REMARK   69  A    between atoms: _155  and  _156
REMARK   70  A    between atoms: _159  and  _161
REMARK   71  A    between atoms: _161  and  _162
REMARK   72  A    between atoms: _164  and  _166
REMARK   73  A    between atoms: _166  and  _167
REMARK   74  A    between atoms: _169  and  _171
REMARK   75  A    between atoms: _171  and  _172
REMARK   76  A    between atoms: _171  and  _174
REMARK   77  A    between atoms: _174  and  _175
REMARK   78  A    between atoms: _181  and  _183
REMARK   79  A    between atoms: _183  and  _184
REMARK   80  A    between atoms: _183  and  _186
REMARK   81  A    between atoms: _186  and  _187
REMARK   82  A    between atoms: _190  and  _192
REMARK   83  A    between atoms: _192  and  _193
REMARK   84  A    between atoms: _192  and  _195
REMARK   85  A    between atoms: _198  and  _200
REMARK   86  A    between atoms: _200  and  _201
REMARK   87  A    between atoms: _200  and  _203
REMARK   88  A    between atoms: _203  and  _204
REMARK   89  A    between atoms: _208  and  _209
REMARK   90  A    between atoms: _214  and  _216
REMARK   91  A    between atoms: _216  and  _217
REMARK   92  A    between atoms: _216  and  _219
REMARK   93  A    between atoms: _219  and  _220
REMARK   94  A    between atoms: _224  and  _225
REMARK   95  A    between atoms: _230  and  _232
REMARK   96  A    between atoms: _232  and  _233
REMARK   97  A    between atoms: _232  and  _235
REMARK   98  A    between atoms: _235  and  _236
REMARK   99  A    between atoms: _242  and  _244
REMARK  100  A    between atoms: _244  and  _245
REMARK  101  A    between atoms: _244  and  _247
REMARK  102  A    between atoms: _247  and  _248
REMARK  103  A    between atoms: _253  and  _255
REMARK  104  A    between atoms: _255  and  _256
REMARK  105  A    between atoms: _255  and  _258
REMARK  106  A    between atoms: _261  and  _263
REMARK  107  A    between atoms: _263  and  _264
REMARK  108  A    between atoms: _263  and  _266
REMARK  109  A    between atoms: _266  and  _267
REMARK  110  A    between atoms: _270  and  _272
REMARK  111  A    between atoms: _272  and  _273
REMARK  112  A    between atoms: _275  and  _277
REMARK  113  A    between atoms: _277  and  _278
REMARK  114  A    between atoms: _277  and  _280
REMARK  115  A    between atoms: _280  and  _281
REMARK  116  A    between atoms: _281  and  _282
REMARK  117  A    between atoms: _282  and  _283
REMARK  118  A    between atoms: _292  and  _294
REMARK  119  A    between atoms: _294  and  _295
REMARK  120  A    between atoms: _294  and  _297
REMARK  121  A    between atoms: _297  and  _298
REMARK  122  A    between atoms: _303  and  _305
REMARK  123  A    between atoms: _305  and  _306
REMARK  124  A    between atoms: _305  and  _308
REMARK  125  A    between atoms: _308  and  _309
REMARK  126  A    between atoms: _309  and  _310
REMARK  127  A    between atoms: _310  and  _311
REMARK  128  A    between atoms: _320  and  _322
REMARK  129  A    between atoms: _322  and  _323
REMARK  130  A    between atoms: _322  and  _325
REMARK  131  A    between atoms: _325  and  _326
REMARK  132  A    between atoms: _329  and  _331
REMARK  133  A    between atoms: _331  and  _332
REMARK  134  A    between atoms: _331  and  _334
REMARK  135  A    between atoms: _334  and  _335
REMARK  136  A    between atoms: _338  and  _340
REMARK  137  A    between atoms: _340  and  _341
REMARK  138  A    between atoms: _340  and  _343
REMARK  139  A    between atoms: _343  and  _344
REMARK  140  A    between atoms: _347  and  _349
REMARK  141  A    between atoms: _349  and  _350
REMARK  142  A    between atoms: _349  and  _352
REMARK  143  A    between atoms: _352  and  _353
REMARK  144  A    between atoms: _356  and  _358
REMARK  145  A    between atoms: _358  and  _359
REMARK  146  A    between atoms: _358  and  _361
REMARK  147  A    between atoms: _361  and  _362
REMARK  148  A    between atoms: _365  and  _367
REMARK  149  A    between atoms: _367  and  _368
REMARK  150  A    between atoms: _370  and  _372
REMARK  151  A    between atoms: _372  and  _373
REMARK  152  A    between atoms: _376  and  _378
REMARK  153  A    between atoms: _378  and  _379
REMARK  154  A    between atoms: _378  and  _381
REMARK  155  A    between atoms: _381  and  _382
REMARK  156  A    between atoms: _385  and  _387
REMARK  157  A    between atoms: _387  and  _388
REMARK  158  A    between atoms: _387  and  _390
REMARK  159  A    between atoms: _390  and  _391
REMARK  160  A    between atoms: _394  and  _396
REMARK  161  A    between atoms: _396  and  _397
REMARK  162  A    between atoms: _396  and  _399
REMARK  163  A    between atoms: _399  and  _400
REMARK  164  A    between atoms: _403  and  _405
REMARK  165  A    between atoms: _405  and  _406
REMARK  166  A    between atoms: _405  and  _408
REMARK  167  A    between atoms: _411  and  _413
REMARK  168  A    between atoms: _413  and  _414
REMARK  169  A    between atoms: _413  and  _416
REMARK  170  A    between atoms: _416  and  _417
REMARK  171  A    between atoms: _417  and  _418
REMARK  172  A    between atoms: _418  and  _419
REMARK  173  A    between atoms: _419  and  _420
REMARK  174  A    between atoms: _424  and  _426
REMARK  175  A    between atoms: _426  and  _427
REMARK  176  A    between atoms: _426  and  _429
REMARK  177  A    between atoms: _429  and  _430
REMARK  178  A    between atoms: _430  and  _431
REMARK  179  A    between atoms: _433  and  _435
REMARK  180  A    between atoms: _435  and  _436
REMARK  181  A    between atoms: _435  and  _438
REMARK  182  A    between atoms: _438  and  _439
REMARK  183  A    between atoms: _442  and  _444
REMARK  184  A    between atoms: _444  and  _445
REMARK  185  A    between atoms: _447  and  _449
REMARK  186  A    between atoms: _449  and  _450
REMARK  187  A    between atoms: _452  and  _454
REMARK  188  A    between atoms: _454  and  _455
REMARK  189  A    between atoms: _454  and  _457
REMARK  190  A    between atoms: _457  and  _458
REMARK  191  A    between atoms: _461  and  _463
REMARK  192  A    between atoms: _463  and  _464
REMARK  193  A    between atoms: _466  and  _468
REMARK  194  A    between atoms: _468  and  _469
REMARK  195  A    between atoms: _471  and  _473
REMARK  196  A    between atoms: _473  and  _474
REMARK  197  A    between atoms: _473  and  _476
REMARK  198  A    between atoms: _476  and  _477
REMARK  199  A    between atoms: _480  and  _482
REMARK  200  A    between atoms: _482  and  _483
REMARK  201  A    between atoms: _482  and  _485
REMARK  202  A    between atoms: _488  and  _490
REMARK  203  A    between atoms: _490  and  _491
REMARK  204  A    between atoms: _490  and  _493
REMARK  205  A    between atoms: _493  and  _494
REMARK  206  A    between atoms: _498  and  _499
REMARK  207  A    between atoms: _504  and  _506
REMARK  208  A    between atoms: _506  and  _507
REMARK  209  A    between atoms: _506  and  _509
REMARK  210  A    between atoms: _509  and  _510
REMARK  211  A    between atoms: _514  and  _515
REMARK  212  A    between atoms: _520  and  _522
REMARK  213  A    between atoms: _522  and  _523
REMARK  214  A    between atoms: _522  and  _525
REMARK  215  A    between atoms: _525  and  _526
REMARK  216  A    between atoms: _532  and  _534
REMARK  217  A    between atoms: _534  and  _535
REMARK  218  A    between atoms: _534  and  _537
REMARK  219  A    between atoms: _537  and  _538
REMARK  220  A    between atoms: _543  and  _545
REMARK  221  A    between atoms: _545  and  _546
REMARK  222  A    between atoms: _545  and  _548
REMARK  223  A    between atoms: _551  and  _553
REMARK  224  A    between atoms: _553  and  _554
REMARK  225  A    between atoms: _553  and  _556
REMARK  226  A    between atoms: _556  and  _557
REMARK  227  A    between atoms: _560  and  _562
REMARK  228  A    between atoms: _562  and  _563
REMARK  229  A    between atoms: _565  and  _567
REMARK  230  A    between atoms: _567  and  _568
REMARK  231  A    between atoms: _567  and  _570
REMARK  232  A    between atoms: _570  and  _571
REMARK  233  A    between atoms: _571  and  _572
REMARK  234  A    between atoms: _572  and  _573
REMARK  235  A    between atoms: _582  and  _584
REMARK  236  A    between atoms: _584  and  _585
REMARK  237  A    between atoms: _584  and  _587
REMARK  238  A    between atoms: _587  and  _588
REMARK                            x       y       z     vdW  Elec       q    Type
REMARK                         _______ _______ _______ _____ _____    ______ ____
ROOT
ATOM      1  CA  LEU A   1      21.102  30.717   6.574  0.00  0.00    +0.133 C 
ENDROOT
BRANCH   1   2
ATOM      2  N   LEU A   1      20.281  31.874   6.898  0.00  0.00    -0.239 NA
ATOM      3  H   LEU A   1      19.556  31.790   7.639  0.00  0.00    +0.142 HD
ENDBRANCH   1   2
BRANCH   1   4
ATOM      4  C   LEU A   1      20.268  29.787   5.702  0.00  0.00    +0.224 C 
ATOM      5  O   LEU A   1      19.123  29.476   6.037  0.00  0.00    -0.287 OA
ENDBRANCH   1   4
BRANCH   1   6
ATOM      6  CB  LEU A   1      21.531  30.003   7.859  0.00  0.00    +0.025 C 
BRANCH   6   7
ATOM      7  CG  LEU A   1      22.170  30.877   8.946  0.00  0.00    +0.002 C 
ATOM      8  CD2 LEU A   1      22.550  30.000  10.136  0.00  0.00    +0.000 C 
ATOM      9  CD1 LEU A   1      23.404  31.597   8.396  0.00  0.00    +0.000 C 
ENDBRANCH   6   7
ENDBRANCH   1   6
TORSDOF 4
REMARK  Name = ../refined-set-2016/1msn/1msn_pocket.pdb
REMARK  238 active torsions:
REMARK  status: ('A' for Active; 'I' for Inactive)
REMARK    1  A    between atoms: _1  and  _3
REMARK    2  A    between atoms: _3  and  _4
REMARK    3  A    between atoms: _3  and  _6
REMARK    4  A    between atoms: _6  and  _7
REMARK    5  A    between atoms: _7  and  _8
REMARK    6  A    between atoms: _8  and  _9
REMARK    7  A    between atoms: _18  and  _20
REMARK    8  A    between atoms: _20  and  _21
REMARK    9  A    between atoms: _20  and  _23
REMARK   10  A    between atoms: _23  and  _24
REMARK   11  A    between atoms: _27  and  _29
REMARK   12  A    between atoms: _29  and  _30
REMARK   13  A    between atoms: _29  and  _32
REMARK   14  A    between atoms: _32  and  _33
REMARK   15  A    between atoms: _36  and  _38
REMARK   16  A    between atoms: _38  and  _39
REMARK   17  A    between atoms: _38  and  _41
REMARK   18  A    between atoms: _41  and  _42
REMARK   19  A    between atoms: _45  and  _47
REMARK   20  A    between atoms: _47  and  _48
REMARK   21  A    between atoms: _47  and  _50
REMARK   22  A    between atoms: _50  and  _51
REMARK   23  A    between atoms: _54  and  _56
REMARK   24  A    between atoms: _56  and  _57
REMARK   25  A    between atoms: _59  and  _61
REMARK   26  A    between atoms: _61  and  _62
REMARK   27  A    between atoms: _65  and  _67
REMARK   28  A    between atoms: _67  and  _68
REMARK   29  A    between atoms: _67  and  _70
REMARK   30  A    between atoms: _70  and  _71
REMARK   31  A    between atoms: _74  and  _76
REMARK   32  A    between atoms: _76  and  _77
REMARK   33  A    between atoms: _76  and  _79
REMARK   34  A    between atoms: _79  and  _80
REMARK   35  A    between atoms: _83  and  _85
REMARK   36  A    between atoms: _85  and  _86
REMARK   37  A    between atoms: _85  and  _88
REMARK   38  A    between atoms: _88  and  _89
REMARK   39  A    between atoms: _92  and  _94
REMARK   40  A    between atoms: _94  and  _95
REMARK   41  A    between atoms: _94  and  _97
REMARK   42  A    between atoms: _100  and  _102
REMARK   43  A    between atoms: _102  and  _103
REMARK   44  A    between atoms: _102  and  _105
REMARK   45  A    between atoms: _105  and  _106
REMARK   46  A    between atoms: _109  and  _111
REMARK   47  A    between atoms: _111  and  _112
REMARK   48  A    between atoms: _111  and  _114
REMARK   49  A    between atoms: _114  and  _115
REMARK   50  A    between atoms: _115  and  _116
REMARK   51  A    between atoms: _116  and  _117
REMARK   52  A    between atoms: _117  and  _118
REMARK   53  A    between atoms: _122  and  _124
REMARK   54  A    between atoms: _124  and  _125
REMARK   55  A    between atoms: _124  and  _127
REMARK   56  A    between atoms: _127  and  _128
REMARK   57  A    between atoms: _128  and  _129
REMARK   58  A    between atoms: _131  and  _133
REMARK   59  A    between atoms: _133  and  _134
REMARK   60  A    between atoms: _133  and  _136
REMARK   61  A    between atoms: _136  and  _137
REMARK   62  A    between atoms: _140  and  _142
REMARK   63  A    between atoms: _142  and  _143
REMARK   64  A    between atoms: _145  and  _147
REMARK   65  A    between atoms: _147  and  _148
REMARK   66  A    between atoms: _150  and  _152
REMARK   67  A    between atoms: _152  and  _153
REMARK   68  A    between atoms: _152  and  _155
REMARK   69  A    between atoms: _155  and  _156
REMARK   70  A    between atoms: _159  and  _161
REMARK   71  A    between atoms: _161  and  _162
REMARK   72  A    between atoms: _164  and  _166
REMARK   73  A    between atoms: _166  and  _167
REMARK   74  A    between atoms: _169  and  _171
REMARK   75  A    between atoms: _171  and  _172
REMARK   76  A    between atoms: _171  and  _174
REMARK   77  A    between atoms: _174  and  _175
REMARK   78  A    between atoms: _181  and  _183
REMARK   79  A    between atoms: _183  and  _184
REMARK   80  A    between atoms: _183  and  _186
REMARK   81  A    between atoms: _186  and  _187
REMARK   82  A    between atoms: _190  and  _192
REMARK   83  A    between atoms: _192  and  _193
REMARK   84  A    between atoms: _192  and  _195
REMARK   85  A    between atoms: _198  and  _200
REMARK   86  A    between atoms: _200  and  _201
REMARK   87  A    between atoms: _200  and  _203
REMARK   88  A    between atoms: _203  and  _204
REMARK   89  A    between atoms: _208  and  _209
REMARK   90  A    between atoms: _214  and  _216
REMARK   91  A    between atoms: _216  and  _217
REMARK   92  A    between atoms: _216  and  _219
REMARK   93  A    between atoms: _219  and  _220
REMARK   94  A    between atoms: _224  and  _225
REMARK   95  A    between atoms: _230  and  _232
REMARK   96  A    between atoms: _232  and  _233
REMARK   97  A    between atoms: _232  and  _235
REMARK   98  A    between atoms: _235  and  _236
REMARK   99  A    between atoms: _242  and  _244
REMARK  100  A    between atoms: _244  and  _245
REMARK  101  A    between atoms: _244  and  _247
REMARK  102  A    between atoms: _247  and  _248
REMARK  103  A    between atoms: _253  and  _255
REMARK  104  A    between atoms: _255  and  _256
REMARK  105  A    between atoms: _255  and  _258
REMARK  106  A    between atoms: _261  and  _263
REMARK  107  A    between atoms: _263  and  _264
REMARK  108  A    between atoms: _263  and  _266
REMARK  109  A    between atoms: _266  and  _267
REMARK  110  A    between atoms: _270  and  _272
REMARK  111  A    between atoms: _272  and  _273
REMARK  112  A    between atoms: _275  and  _277
REMARK  113  A    between atoms: _277  and  _278
REMARK  114  A    between atoms: _277  and  _280
REMARK  115  A    between atoms: _280  and  _281
REMARK  116  A    between atoms: _281  and  _282
REMARK  117  A    between atoms: _282  and  _283
REMARK  118  A    between atoms: _292  and  _294
REMARK  119  A    between atoms: _294  and  _295
REMARK  120  A    between atoms: _294  and  _297
REMARK  121  A    between atoms: _297  and  _298
REMARK  122  A    between atoms: _303  and  _305
REMARK  123  A    between atoms: _305  and  _306
REMARK  124  A    between atoms: _305  and  _308
REMARK  125  A    between atoms: _308  and  _309
REMARK  126  A    between atoms: _309  and  _310
REMARK  127  A    between atoms: _310  and  _311
REMARK  128  A    between atoms: _320  and  _322
REMARK  129  A    between atoms: _322  and  _323
REMARK  130  A    between atoms: _322  and  _325
REMARK  131  A    between atoms: _325  and  _326
REMARK  132  A    between atoms: _329  and  _331
REMARK  133  A    between atoms: _331  and  _332
REMARK  134  A    between atoms: _331  and  _334
REMARK  135  A    between atoms: _334  and  _335
REMARK  136  A    between atoms: _338  and  _340
REMARK  137  A    between atoms: _340  and  _341
REMARK  138  A    between atoms: _340  and  _343
REMARK  139  A    between atoms: _343  and  _344
REMARK  140  A    between atoms: _347  and  _349
REMARK  141  A    between atoms: _349  and  _350
REMARK  142  A    between atoms: _349  and  _352
REMARK  143  A    between atoms: _352  and  _353
REMARK  144  A    between atoms: _356  and  _358
REMARK  145  A    between atoms: _358  and  _359
REMARK  146  A    between atoms: _358  and  _361
REMARK  147  A    between atoms: _361  and  _362
REMARK  148  A    between atoms: _365  and  _367
REMARK  149  A    between atoms: _367  and  _368
REMARK  150  A    between atoms: _370  and  _372
REMARK  151  A    between atoms: _372  and  _373
REMARK  152  A    between atoms: _376  and  _378
REMARK  153  A    between atoms: _378  and  _379
REMARK  154  A    between atoms: _378  and  _381
REMARK  155  A    between atoms: _381  and  _382
REMARK  156  A    between atoms: _385  and  _387
REMARK  157  A    between atoms: _387  and  _388
REMARK  158  A    between atoms: _387  and  _390
REMARK  159  A    between atoms: _390  and  _391
REMARK  160  A    between atoms: _394  and  _396
REMARK  161  A    between atoms: _396  and  _397
REMARK  162  A    between atoms: _396  and  _399
REMARK  163  A    between atoms: _399  and  _400
REMARK  164  A    between atoms: _403  and  _405
REMARK  165  A    between atoms: _405  and  _406
REMARK  166  A    between atoms: _405  and  _408
REMARK  167  A    between atoms: _411  and  _413
REMARK  168  A    between atoms: _413  and  _414
REMARK  169  A    between atoms: _413  and  _416
REMARK  170  A    between atoms: _416  and  _417
REMARK  171  A    between atoms: _417  and  _418
REMARK  172  A    between atoms: _418  and  _419
REMARK  173  A    between atoms: _419  and  _420
REMARK  174  A    between atoms: _424  and  _426
REMARK  175  A    between atoms: _426  and  _427
REMARK  176  A    between atoms: _426  and  _429
REMARK  177  A    between atoms: _429  and  _430
REMARK  178  A    between atoms: _430  and  _431
REMARK  179  A    between atoms: _433  and  _435
REMARK  180  A    between atoms: _435  and  _436
REMARK  181  A    between atoms: _435  and  _438
REMARK  182  A    between atoms: _438  and  _439
REMARK  183  A    between atoms: _442  and  _444
REMARK  184  A    between atoms: _444  and  _445
REMARK  185  A    between atoms: _447  and  _449
REMARK  186  A    between atoms: _449  and  _450
REMARK  187  A    between atoms: _452  and  _454
REMARK  188  A    between atoms: _454  and  _455
REMARK  189  A    between atoms: _454  and  _457
REMARK  190  A    between atoms: _457  and  _458
REMARK  191  A    between atoms: _461  and  _463
REMARK  192  A    between atoms: _463  and  _464
REMARK  193  A    between atoms: _466  and  _468
REMARK  194  A    between atoms: _468  and  _469
REMARK  195  A    between atoms: _471  and  _473
REMARK  196  A    between atoms: _473  and  _474
REMARK  197  A    between atoms: _473  and  _476
REMARK  198  A    between atoms: _476  and  _477
REMARK  199  A    between atoms: _480  and  _482
REMARK  200  A    between atoms: _482  and  _483
REMARK  201  A    between atoms: _482  and  _485
REMARK  202  A    between atoms: _488  and  _490
REMARK  203  A    between atoms: _490  and  _491
REMARK  204  A    between atoms: _490  and  _493
REMARK  205  A    between atoms: _493  and  _494
REMARK  206  A    between atoms: _498  and  _499
REMARK  207  A    between atoms: _504  and  _506
REMARK  208  A    between atoms: _506  and  _507
REMARK  209  A    between atoms: _506  and  _509
REMARK  210  A    between atoms: _509  and  _510
REMARK  211  A    between atoms: _514  and  _515
REMARK  212  A    between atoms: _520  and  _522
REMARK  213  A    between atoms: _522  and  _523
REMARK  214  A    between atoms: _522  and  _525
REMARK  215  A    between atoms: _525  and  _526
REMARK  216  A    between atoms: _532  and  _534
REMARK  217  A    between atoms: _534  and  _535
REMARK  218  A    between atoms: _534  and  _537
REMARK  219  A    between atoms: _537  and  _538
REMARK  220  A    between atoms: _543  and  _545
REMARK  221  A    between atoms: _545  and  _546
REMARK  222  A    between atoms: _545  and  _548
REMARK  223  A    between atoms: _551  and  _553
REMARK  224  A    between atoms: _553  and  _554
REMARK  225  A    between atoms: _553  and  _556
REMARK  226  A    between atoms: _556  and  _557
REMARK  227  A    between atoms: _560  and  _562
REMARK  228  A    between atoms: _562  and  _563
REMARK  229  A    between atoms: _565  and  _567
REMARK  230  A    between atoms: _567  and  _568
REMARK  231  A    between atoms: _567  and  _570
REMARK  232  A    between atoms: _570  and  _571
REMARK  233  A    between atoms: _571  and  _572
REMARK  234  A    between atoms: _572  and  _573
REMARK  235  A    between atoms: _582  and  _584
REMARK  236  A    between atoms: _584  and  _585
REMARK  237  A    between atoms: _584  and  _587
REMARK  238  A    between atoms: _587  and  _588
REMARK                            x       y       z     vdW  Elec       q    Type
REMARK                         _______ _______ _______ _____ _____    ______ ____
ROOT
ATOM      1  C   ASN A   5      11.841  27.304   9.435  0.00  0.00    +0.241 C 
ATOM      2  N   VAL A   6      12.881  27.911   9.996  0.00  0.00    -0.297 N 
ATOM      3  H   VAL A   6      13.796  27.938   9.502  0.00  0.00    +0.150 HD
ATOM      4  O   ASN A   5      10.742  27.222   9.988  0.00  0.00    -0.273 OA
ENDROOT
BRANCH   1   5
ATOM      5  CA  ASN A   5      12.055  26.670   8.070  0.00  0.00    +0.158 C 
BRANCH   5   8
ATOM      6  C   PHE A   4      12.483  24.431   8.848  0.00  0.00    +0.241 C 
ATOM      7  O   PHE A   4      13.642  24.727   9.135  0.00  0.00    -0.273 OA
ATOM      8  N   ASN A   5      11.638  25.295   8.292  0.00  0.00    -0.297 N 
ATOM      9  H   ASN A   5      10.683  24.988   8.017  0.00  0.00    +0.150 HD
BRANCH   6  10
ATOM     10  CA  PHE A   4      11.953  23.032   9.129  0.00  0.00    +0.153 C 
BRANCH  10  12
ATOM     11  C   PRO A   3      12.776  20.916   8.209  0.00  0.00    +0.241 C 
ATOM     12  N   PHE A   4      12.993  22.024   8.914  0.00  0.00    -0.297 N 
ATOM     13  H   PHE A   4      13.935  22.179   9.327  0.00  0.00    +0.150 HD
ATOM     14  O   PRO A   3      11.693  20.659   7.688  0.00  0.00    -0.273 OA
BRANCH  11  20
ATOM     15  C   THR A   2      15.665  21.459   7.162  0.00  0.00    +0.246 C 
ATOM     16  N   PRO A   3      15.249  20.660   8.159  0.00  0.00    -0.272 N 
ATOM     17  CD  PRO A   3      16.068  20.119   9.259  0.00  0.00    +0.094 C 
ATOM     18  CG  PRO A   3      15.503  18.727   9.414  0.00  0.00    +0.024 C 
ATOM     19  CB  PRO A   3      14.031  18.965   9.241  0.00  0.00    +0.031 C 
ATOM     20  CA  PRO A   3      13.963  19.953   8.075  0.00  0.00    +0.152 C 
ATOM     21  O   THR A   2      15.011  21.609   6.127  0.00  0.00    -0.273 OA
BRANCH  15  22
ATOM     22  CA  THR A   2      17.009  22.156   7.336  0.00  0.00    +0.176 C 
BRANCH  22  25
ATOM     23  C   PRO A   1      18.382  21.111   5.633  0.00  0.00    +0.239 C 
ATOM     24  O   PRO A   1      18.504  20.083   6.303  0.00  0.00    -0.274 OA
ATOM     25  N   THR A   2      17.694  22.168   6.052  0.00  0.00    -0.295 N 
ATOM     26  H   THR A   2      17.644  23.017   5.453  0.00  0.00    +0.150 HD
BRANCH  23  28
ATOM     27  N   PRO A   1      19.966  22.356   4.127  0.00  0.00    -0.210 NA
ATOM     28  CA  PRO A   1      19.040  21.228   4.266  0.00  0.00    +0.149 C 
ATOM     29  CB  PRO A   1      19.920  20.028   3.932  0.00  0.00    +0.028 C 
ATOM     30  CG  PRO A   1      21.244  20.432   4.549  0.00  0.00    +0.021 C 
ATOM     31  CD  PRO A   1      21.369  21.899   4.128  0.00  0.00    +0.089 C 
ENDBRANCH  23  28
ENDBRANCH  22  25
BRANCH  22  32
ATOM     32  CB  THR A   2      16.771  23.594   7.875  0.00  0.00    +0.137 C 
ATOM     33  CG2 THR A   2      16.015  24.438   6.855  0.00  0.00    +0.034 C 
BRANCH  32  34
ATOM     34  OG1 THR A   2      16.007  23.533   9.085  0.00  0.00    -0.382 OA
ATOM     35  HG1 THR A   2      15.135  23.101   8.902  0.00  0.00    +0.210 HD
ENDBRANCH  32  34
ENDBRANCH  22  32
ENDBRANCH  15  22
ENDBRANCH  11  20
ENDBRANCH  10  12
BRANCH  10  36
ATOM     36  CB  PHE A   4      11.483  23.021  10.588  0.00  0.00    +0.055 C 
BRANCH  36  37
ATOM     37  CG  PHE A   4      10.400  22.027  10.889  0.00  0.00    -0.020 A 
ATOM     38  CD2 PHE A   4       9.332  22.387  11.703  0.00  0.00    -0.004 A 
ATOM     39  CE2 PHE A   4       8.350  21.459  12.048  0.00  0.00    -0.000 A 
ATOM     40  CZ  PHE A   4       8.433  20.157  11.572  0.00  0.00    -0.000 A 
ATOM     41  CE1 PHE A   4       9.495  19.788  10.753  0.00  0.00    -0.000 A 
ATOM     42  CD1 PHE A   4      10.471  20.723  10.417  0.00  0.00    -0.004 A 
ENDBRANCH  36  37
ENDBRANCH  10  36
ENDBRANCH   6  10
ENDBRANCH   5   8
BRANCH   5  43
ATOM     43  CB  ASN A   5      11.165  27.376   7.040  0.00  0.00    +0.114 C 
BRANCH  43  44
ATOM     44  CG  ASN A   5      11.328  26.815   5.640  0.00  0.00    +0.222 C 
ATOM     45  OD1 ASN A   5      12.428  26.437   5.232  0.00  0.00    -0.275 OA
ATOM     46  ND2 ASN A   5      10.235  26.778   4.888  0.00  0.00    -0.329 N 
ATOM     47 HD21 ASN A   5       9.327  27.107   5.274  0.00  0.00    +0.145 HD
ATOM     48 HD22 ASN A   5      10.286  26.420   3.913  0.00  0.00    +0.145 HD
ENDBRANCH  43  44
ENDBRANCH   5  43
ENDBRANCH   1   5
BRANCH   2  49
ATOM     49  CA  VAL A   6      12.739  28.538  11.302  0.00  0.00    +0.149 C 
BRANCH  49  50
ATOM     50  C   VAL A   6      13.185  29.990  11.332  0.00  0.00    +0.241 C 
ATOM     51  N   ILE A   7      12.383  30.822  11.986  0.00  0.00    -0.297 N 
ATOM     52  H   ILE A   7      11.503  30.455  12.401  0.00  0.00    +0.150 HD
ATOM     53  O   VAL A   6      14.215  30.349  10.767  0.00  0.00    -0.273 OA
BRANCH  51  54
ATOM     54  CA  ILE A   7      12.703  32.232  12.138  0.00  0.00    +0.149 C 
BRANCH  54  55
ATOM     55  C   ILE A   7      13.374  32.309  13.504  0.00  0.00    +0.241 C 
ATOM     56  O   ILE A   7      12.739  32.039  14.529  0.00  0.00    -0.273 OA
ATOM     57  N   GLY A   8      14.655  32.657  13.510  0.00  0.00    -0.295 N 
ATOM     58  H   GLY A   8      15.131  32.881  12.613  0.00  0.00    +0.150 HD
BRANCH  57  59
ATOM     59  CA  GLY A   8      15.401  32.729  14.757  0.00  0.00    +0.176 C 
BRANCH  59  60
ATOM     60  C   GLY A   8      15.387  34.073  15.458  0.00  0.00    +0.243 C 
ATOM     61  N   ARG A   9      16.078  34.142  16.591  0.00  0.00    -0.297 N 
ATOM     62  H   ARG A   9      16.595  33.301  16.920  0.00  0.00    +0.150 HD
ATOM     63  O   GLY A   8      14.775  35.027  14.987  0.00  0.00    -0.273 OA
BRANCH  61  64
ATOM     64  CA  ARG A   9      16.132  35.360  17.384  0.00  0.00    +0.149 C 
BRANCH  64  65
ATOM     65  C   ARG A   9      16.624  36.579  16.613  0.00  0.00    +0.241 C 
ATOM     66  O   ARG A   9      16.133  37.678  16.848  0.00  0.00    -0.273 OA
ATOM     67  N   ASN A  10      17.573  36.397  15.693  0.00  0.00    -0.298 N 
ATOM     68  H   ASN A  10      17.937  35.442  15.501  0.00  0.00    +0.150 HD
BRANCH  67  69
ATOM     69  CA  ASN A  10      18.100  37.543  14.956  0.00  0.00    +0.146 C 
BRANCH  69  70
ATOM     70  C   ASN A  10      16.993  38.324  14.263  0.00  0.00    +0.227 C 
ATOM     71  O   ASN A  10      17.103  39.536  14.108  0.00  0.00    -0.286 OA
ENDBRANCH  69  70
BRANCH  69  72
ATOM     72  CB  ASN A  10      19.201  37.123  13.961  0.00  0.00    +0.112 C 
BRANCH  72  73
ATOM     73  CG  ASN A  10      18.666  36.416  12.726  0.00  0.00    +0.222 C 
ATOM     74  OD1 ASN A  10      17.904  35.454  12.820  0.00  0.00    -0.275 OA
ATOM     75  ND2 ASN A  10      19.088  36.883  11.553  0.00  0.00    -0.329 N 
ATOM     76 HD21 ASN A  10      19.732  37.699  11.519  0.00  0.00    +0.145 HD
ATOM     77 HD22 ASN A  10      18.774  36.432  10.670  0.00  0.00    +0.145 HD
ENDBRANCH  72  73
ENDBRANCH  69  72
ENDBRANCH  67  69
ENDBRANCH  64  65
BRANCH  64  78
ATOM     78  CB  ARG A   9      17.011  35.157  18.629  0.00  0.00    +0.033 C 
BRANCH  78  79
ATOM     79  CG  ARG A   9      16.451  34.138  19.629  0.00  0.00    +0.045 C 
BRANCH  79  80
ATOM     80  CD  ARG A   9      17.239  34.123  20.948  0.00  0.00    +0.174 C 
BRANCH  80  81
ATOM     81  NE  ARG A   9      18.632  33.710  20.772  0.00  0.00    -0.265 N 
ATOM     82  HE  ARG A   9      18.827  32.690  20.713  0.00  0.00    +0.259 HD
ATOM     83  CZ  ARG A   9      19.671  34.542  20.682  0.00  0.00    +0.342 C 
ATOM     84  NH2 ARG A   9      19.502  35.858  20.753  0.00  0.00    -0.292 N 
ATOM     85 HH21 ARG A   9      18.549  36.254  20.881  0.00  0.00    +0.255 HD
ATOM     86 HH22 ARG A   9      20.323  36.492  20.681  0.00  0.00    +0.255 HD
ATOM     87  NH1 ARG A   9      20.891  34.051  20.519  0.00  0.00    -0.292 N 
ATOM     88 HH11 ARG A   9      21.034  33.022  20.462  0.00  0.00    +0.255 HD
ATOM     89 HH12 ARG A   9      21.705  34.694  20.448  0.00  0.00    +0.255 HD
ENDBRANCH  80  81
ENDBRANCH  79  80
ENDBRANCH  78  79
ENDBRANCH  64  78
ENDBRANCH  61  64
ENDBRANCH  59  60
ENDBRANCH  57  59
ENDBRANCH  54  55
BRANCH  54  90
ATOM     90  CB  ILE A   7      11.436  33.108  12.152  0.00  0.00    +0.027 C 
ATOM     91  CG2 ILE A   7      11.821  34.577  12.317  0.00  0.00    +0.002 C 
BRANCH  90  92
ATOM     92  CG1 ILE A   7      10.638  32.896  10.864  0.00  0.00    +0.002 C 
ATOM     93  CD1 ILE A   7      11.451  33.059   9.598  0.00  0.00    +0.000 C 
ENDBRANCH  90  92
ENDBRANCH  54  90
ENDBRANCH  51  54
ENDBRANCH  49  50
BRANCH  49  94
ATOM     94  CB  VAL A   6      13.531  27.773  12.406  0.00  0.00    +0.027 C 
ATOM     95  CG2 VAL A   6      12.999  26.350  12.545  0.00  0.00    +0.002 C 
ATOM     96  CG1 VAL A   6      15.008  27.763  12.079  0.00  0.00    +0.002 C 
ENDBRANCH  49  94
ENDBRANCH   2  49
TORSDOF 33
REMARK  Name = ../refined-set-2016/1msn/1msn_pocket.pdb
REMARK  238 active torsions:
REMARK  status: ('A' for Active; 'I' for Inactive)
REMARK    1  A    between atoms: _1  and  _3
REMARK    2  A    between atoms: _3  and  _4
REMARK    3  A    between atoms: _3  and  _6
REMARK    4  A    between atoms: _6  and  _7
REMARK    5  A    between atoms: _7  and  _8
REMARK    6  A    between atoms: _8  and  _9
REMARK    7  A    between atoms: _18  and  _20
REMARK    8  A    between atoms: _20  and  _21
REMARK    9  A    between atoms: _20  and  _23
REMARK   10  A    between atoms: _23  and  _24
REMARK   11  A    between atoms: _27  and  _29
REMARK   12  A    between atoms: _29  and  _30
REMARK   13  A    between atoms: _29  and  _32
REMARK   14  A    between atoms: _32  and  _33
REMARK   15  A    between atoms: _36  and  _38
REMARK   16  A    between atoms: _38  and  _39
REMARK   17  A    between atoms: _38  and  _41
REMARK   18  A    between atoms: _41  and  _42
REMARK   19  A    between atoms: _45  and  _47
REMARK   20  A    between atoms: _47  and  _48
REMARK   21  A    between atoms: _47  and  _50
REMARK   22  A    between atoms: _50  and  _51
REMARK   23  A    between atoms: _54  and  _56
REMARK   24  A    between atoms: _56  and  _57
REMARK   25  A    between atoms: _59  and  _61
REMARK   26  A    between atoms: _61  and  _62
REMARK   27  A    between atoms: _65  and  _67
REMARK   28  A    between atoms: _67  and  _68
REMARK   29  A    between atoms: _67  and  _70
REMARK   30  A    between atoms: _70  and  _71
REMARK   31  A    between atoms: _74  and  _76
REMARK   32  A    between atoms: _76  and  _77
REMARK   33  A    between atoms: _76  and  _79
REMARK   34  A    between atoms: _79  and  _80
REMARK   35  A    between atoms: _83  and  _85
REMARK   36  A    between atoms: _85  and  _86
REMARK   37  A    between atoms: _85  and  _88
REMARK   38  A    between atoms: _88  and  _89
REMARK   39  A    between atoms: _92  and  _94
REMARK   40  A    between atoms: _94  and  _95
REMARK   41  A    between atoms: _94  and  _97
REMARK   42  A    between atoms: _100  and  _102
REMARK   43  A    between atoms: _102  and  _103
REMARK   44  A    between atoms: _102  and  _105
REMARK   45  A    between atoms: _105  and  _106
REMARK   46  A    between atoms: _109  and  _111
REMARK   47  A    between atoms: _111  and  _112
REMARK   48  A    between atoms: _111  and  _114
REMARK   49  A    between atoms: _114  and  _115
REMARK   50  A    between atoms: _115  and  _116
REMARK   51  A    between atoms: _116  and  _117
REMARK   52  A    between atoms: _117  and  _118
REMARK   53  A    between atoms: _122  and  _124
REMARK   54  A    between atoms: _124  and  _125
REMARK   55  A    between atoms: _124  and  _127
REMARK   56  A    between atoms: _127  and  _128
REMARK   57  A    between atoms: _128  and  _129
REMARK   58  A    between atoms: _131  and  _133
REMARK   59  A    between atoms: _133  and  _134
REMARK   60  A    between atoms: _133  and  _136
REMARK   61  A    between atoms: _136  and  _137
REMARK   62  A    between atoms: _140  and  _142
REMARK   63  A    between atoms: _142  and  _143
REMARK   64  A    between atoms: _145  and  _147
REMARK   65  A    between atoms: _147  and  _148
REMARK   66  A    between atoms: _150  and  _152
REMARK   67  A    between atoms: _152  and  _153
REMARK   68  A    between atoms: _152  and  _155
REMARK   69  A    between atoms: _155  and  _156
REMARK   70  A    between atoms: _159  and  _161
REMARK   71  A    between atoms: _161  and  _162
REMARK   72  A    between atoms: _164  and  _166
REMARK   73  A    between atoms: _166  and  _167
REMARK   74  A    between atoms: _169  and  _171
REMARK   75  A    between atoms: _171  and  _172
REMARK   76  A    between atoms: _171  and  _174
REMARK   77  A    between atoms: _174  and  _175
REMARK   78  A    between atoms: _181  and  _183
REMARK   79  A    between atoms: _183  and  _184
REMARK   80  A    between atoms: _183  and  _186
REMARK   81  A    between atoms: _186  and  _187
REMARK   82  A    between atoms: _190  and  _192
REMARK   83  A    between atoms: _192  and  _193
REMARK   84  A    between atoms: _192  and  _195
REMARK   85  A    between atoms: _198  and  _200
REMARK   86  A    between atoms: _200  and  _201
REMARK   87  A    between atoms: _200  and  _203
REMARK   88  A    between atoms: _203  and  _204
REMARK   89  A    between atoms: _208  and  _209
REMARK   90  A    between atoms: _214  and  _216
REMARK   91  A    between atoms: _216  and  _217
REMARK   92  A    between atoms: _216  and  _219
REMARK   93  A    between atoms: _219  and  _220
REMARK   94  A    between atoms: _224  and  _225
REMARK   95  A    between atoms: _230  and  _232
REMARK   96  A    between atoms: _232  and  _233
REMARK   97  A    between atoms: _232  and  _235
REMARK   98  A    between atoms: _235  and  _236
REMARK   99  A    between atoms: _242  and  _244
REMARK  100  A    between atoms: _244  and  _245
REMARK  101  A    between atoms: _244  and  _247
REMARK  102  A    between atoms: _247  and  _248
REMARK  103  A    between atoms: _253  and  _255
REMARK  104  A    between atoms: _255  and  _256
REMARK  105  A    between atoms: _255  and  _258
REMARK  106  A    between atoms: _261  and  _263
REMARK  107  A    between atoms: _263  and  _264
REMARK  108  A    between atoms: _263  and  _266
REMARK  109  A    between atoms: _266  and  _267
REMARK  110  A    between atoms: _270  and  _272
REMARK  111  A    between atoms: _272  and  _273
REMARK  112  A    between atoms: _275  and  _277
REMARK  113  A    between atoms: _277  and  _278
REMARK  114  A    between atoms: _277  and  _280
REMARK  115  A    between atoms: _280  and  _281
REMARK  116  A    between atoms: _281  and  _282
REMARK  117  A    between atoms: _282  and  _283
REMARK  118  A    between atoms: _292  and  _294
REMARK  119  A    between atoms: _294  and  _295
REMARK  120  A    between atoms: _294  and  _297
REMARK  121  A    between atoms: _297  and  _298
REMARK  122  A    between atoms: _303  and  _305
REMARK  123  A    between atoms: _305  and  _306
REMARK  124  A    between atoms: _305  and  _308
REMARK  125  A    between atoms: _308  and  _309
REMARK  126  A    between atoms: _309  and  _310
REMARK  127  A    between atoms: _310  and  _311
REMARK  128  A    between atoms: _320  and  _322
REMARK  129  A    between atoms: _322  and  _323
REMARK  130  A    between atoms: _322  and  _325
REMARK  131  A    between atoms: _325  and  _326
REMARK  132  A    between atoms: _329  and  _331
REMARK  133  A    between atoms: _331  and  _332
REMARK  134  A    between atoms: _331  and  _334
REMARK  135  A    between atoms: _334  and  _335
REMARK  136  A    between atoms: _338  and  _340
REMARK  137  A    between atoms: _340  and  _341
REMARK  138  A    between atoms: _340  and  _343
REMARK  139  A    between atoms: _343  and  _344
REMARK  140  A    between atoms: _347  and  _349
REMARK  141  A    between atoms: _349  and  _350
REMARK  142  A    between atoms: _349  and  _352
REMARK  143  A    between atoms: _352  and  _353
REMARK  144  A    between atoms: _356  and  _358
REMARK  145  A    between atoms: _358  and  _359
REMARK  146  A    between atoms: _358  and  _361
REMARK  147  A    between atoms: _361  and  _362
REMARK  148  A    between atoms: _365  and  _367
REMARK  149  A    between atoms: _367  and  _368
REMARK  150  A    between atoms: _370  and  _372
REMARK  151  A    between atoms: _372  and  _373
REMARK  152  A    between atoms: _376  and  _378
REMARK  153  A    between atoms: _378  and  _379
REMARK  154  A    between atoms: _378  and  _381
REMARK  155  A    between atoms: _381  and  _382
REMARK  156  A    between atoms: _385  and  _387
REMARK  157  A    between atoms: _387  and  _388
REMARK  158  A    between atoms: _387  and  _390
REMARK  159  A    between atoms: _390  and  _391
REMARK  160  A    between atoms: _394  and  _396
REMARK  161  A    between atoms: _396  and  _397
REMARK  162  A    between atoms: _396  and  _399
REMARK  163  A    between atoms: _399  and  _400
REMARK  164  A    between atoms: _403  and  _405
REMARK  165  A    between atoms: _405  and  _406
REMARK  166  A    between atoms: _405  and  _408
REMARK  167  A    between atoms: _411  and  _413
REMARK  168  A    between atoms: _413  and  _414
REMARK  169  A    between atoms: _413  and  _416
REMARK  170  A    between atoms: _416  and  _417
REMARK  171  A    between atoms: _417  and  _418
REMARK  172  A    between atoms: _418  and  _419
REMARK  173  A    between atoms: _419  and  _420
REMARK  174  A    between atoms: _424  and  _426
REMARK  175  A    between atoms: _426  and  _427
REMARK  176  A    between atoms: _426  and  _429
REMARK  177  A    between atoms: _429  and  _430
REMARK  178  A    between atoms: _430  and  _431
REMARK  179  A    between atoms: _433  and  _435
REMARK  180  A    between atoms: _435  and  _436
REMARK  181  A    between atoms: _435  and  _438
REMARK  182  A    between atoms: _438  and  _439
REMARK  183  A    between atoms: _442  and  _444
REMARK  184  A    between atoms: _444  and  _445
REMARK  185  A    between atoms: _447  and  _449
REMARK  186  A    between atoms: _449  and  _450
REMARK  187  A    between atoms: _452  and  _454
REMARK  188  A    between atoms: _454  and  _455
REMARK  189  A    between atoms: _454  and  _457
REMARK  190  A    between atoms: _457  and  _458
REMARK  191  A    between atoms: _461  and  _463
REMARK  192  A    between atoms: _463  and  _464
REMARK  193  A    between atoms: _466  and  _468
REMARK  194  A    between atoms: _468  and  _469
REMARK  195  A    between atoms: _471  and  _473
REMARK  196  A    between atoms: _473  and  _474
REMARK  197  A    between atoms: _473  and  _476
REMARK  198  A    between atoms: _476  and  _477
REMARK  199  A    between atoms: _480  and  _482
REMARK  200  A    between atoms: _482  and  _483
REMARK  201  A    between atoms: _482  and  _485
REMARK  202  A    between atoms: _488  and  _490
REMARK  203  A    between atoms: _490  and  _491
REMARK  204  A    between atoms: _490  and  _493
REMARK  205  A    between atoms: _493  and  _494
REMARK  206  A    between atoms: _498  and  _499
REMARK  207  A    between atoms: _504  and  _506
REMARK  208  A    between atoms: _506  and  _507
REMARK  209  A    between atoms: _506  and  _509
REMARK  210  A    between atoms: _509  and  _510
REMARK  211  A    between atoms: _514  and  _515
REMARK  212  A    between atoms: _520  and  _522
REMARK  213  A    between atoms: _522  and  _523
REMARK  214  A    between atoms: _522  and  _525
REMARK  215  A    between atoms: _525  and  _526
REMARK  216  A    between atoms: _532  and  _534
REMARK  217  A    between atoms: _534  and  _535
REMARK  218  A    between atoms: _534  and  _537
REMARK  219  A    between atoms: _537  and  _538
REMARK  220  A    between atoms: _543  and  _545
REMARK  221  A    between atoms: _545  and  _546
REMARK  222  A    between atoms: _545  and  _548
REMARK  223  A    between atoms: _551  and  _553
REMARK  224  A    between atoms: _553  and  _554
REMARK  225  A    between atoms: _553  and  _556
REMARK  226  A    between atoms: _556  and  _557
REMARK  227  A    between atoms: _560  and  _562
REMARK  228  A    between atoms: _562  and  _563
REMARK  229  A    between atoms: _565  and  _567
REMARK  230  A    between atoms: _567  and  _568
REMARK  231  A    between atoms: _567  and  _570
REMARK  232  A    between atoms: _570  and  _571
REMARK  233  A    between atoms: _571  and  _572
REMARK  234  A    between atoms: _572  and  _573
REMARK  235  A    between atoms: _582  and  _584
REMARK  236  A    between atoms: _584  and  _585
REMARK  237  A    between atoms: _584  and  _587
REMARK  238  A    between atoms: _587  and  _588
REMARK                            x       y       z     vdW  Elec       q    Type
REMARK                         _______ _______ _______ _____ _____    ______ ____
ROOT
ATOM      1  NE  ARG A   1      23.137  30.734  22.094  0.00  0.00    -0.265 N 
ATOM      2  CZ  ARG A   1      24.316  30.133  21.974  0.00  0.00    +0.342 C 
ATOM      3  NH2 ARG A   1      24.955  29.689  23.051  0.00  0.00    -0.292 N 
ATOM      4 HH21 ARG A   1      24.533  29.811  23.993  0.00  0.00    +0.255 HD
ATOM      5 HH22 ARG A   1      25.878  29.219  22.952  0.00  0.00    +0.255 HD
ATOM      6  NH1 ARG A   1      24.855  29.975  20.771  0.00  0.00    -0.292 N 
ATOM      7 HH11 ARG A   1      25.778  29.505  20.672  0.00  0.00    +0.255 HD
ATOM      8 HH12 ARG A   1      24.355  30.321  19.927  0.00  0.00    +0.255 HD
ATOM      9  HE  ARG A   1      22.675  31.068  21.224  0.00  0.00    +0.259 HD
ENDROOT
BRANCH   1  10
ATOM     10  CD  ARG A   1      22.443  30.960  23.358  0.00  0.00    +0.174 C 
BRANCH  10  11
ATOM     11  CG  ARG A   1      21.324  31.961  23.177  0.00  0.00    +0.045 C 
BRANCH  11  12
ATOM     12  CB  ARG A   1      20.505  32.159  24.447  0.00  0.00    +0.029 C 
BRANCH  12  13
ATOM     13  CA  ARG A   1      19.485  33.297  24.330  0.00  0.00    +0.133 C 
BRANCH  13  14
ATOM     14  N   ARG A   1      20.166  34.583  24.196  0.00  0.00    -0.239 NA
ATOM     15  H   ARG A   1      21.205  34.615  24.179  0.00  0.00    +0.142 HD
ENDBRANCH  13  14
BRANCH  13  16
ATOM     16  C   ARG A   1      18.598  33.330  25.571  0.00  0.00    +0.224 C 
ATOM     17  O   ARG A   1      19.008  33.823  26.625  0.00  0.00    -0.287 OA
ENDBRANCH  13  16
ENDBRANCH  12  13
ENDBRANCH  11  12
ENDBRANCH  10  11
ENDBRANCH   1  10
TORSDOF 6
REMARK  Name = ../refined-set-2016/1msn/1msn_pocket.pdb
REMARK  238 active torsions:
REMARK  status: ('A' for Active; 'I' for Inactive)
REMARK    1  A    between atoms: _1  and  _3
REMARK    2  A    between atoms: _3  and  _4
REMARK    3  A    between atoms: _3  and  _6
REMARK    4  A    between atoms: _6  and  _7
REMARK    5  A    between atoms: _7  and  _8
REMARK    6  A    between atoms: _8  and  _9
REMARK    7  A    between atoms: _18  and  _20
REMARK    8  A    between atoms: _20  and  _21
REMARK    9  A    between atoms: _20  and  _23
REMARK   10  A    between atoms: _23  and  _24
REMARK   11  A    between atoms: _27  and  _29
REMARK   12  A    between atoms: _29  and  _30
REMARK   13  A    between atoms: _29  and  _32
REMARK   14  A    between atoms: _32  and  _33
REMARK   15  A    between atoms: _36  and  _38
REMARK   16  A    between atoms: _38  and  _39
REMARK   17  A    between atoms: _38  and  _41
REMARK   18  A    between atoms: _41  and  _42
REMARK   19  A    between atoms: _45  and  _47
REMARK   20  A    between atoms: _47  and  _48
REMARK   21  A    between atoms: _47  and  _50
REMARK   22  A    between atoms: _50  and  _51
REMARK   23  A    between atoms: _54  and  _56
REMARK   24  A    between atoms: _56  and  _57
REMARK   25  A    between atoms: _59  and  _61
REMARK   26  A    between atoms: _61  and  _62
REMARK   27  A    between atoms: _65  and  _67
REMARK   28  A    between atoms: _67  and  _68
REMARK   29  A    between atoms: _67  and  _70
REMARK   30  A    between atoms: _70  and  _71
REMARK   31  A    between atoms: _74  and  _76
REMARK   32  A    between atoms: _76  and  _77
REMARK   33  A    between atoms: _76  and  _79
REMARK   34  A    between atoms: _79  and  _80
REMARK   35  A    between atoms: _83  and  _85
REMARK   36  A    between atoms: _85  and  _86
REMARK   37  A    between atoms: _85  and  _88
REMARK   38  A    between atoms: _88  and  _89
REMARK   39  A    between atoms: _92  and  _94
REMARK   40  A    between atoms: _94  and  _95
REMARK   41  A    between atoms: _94  and  _97
REMARK   42  A    between atoms: _100  and  _102
REMARK   43  A    between atoms: _102  and  _103
REMARK   44  A    between atoms: _102  and  _105
REMARK   45  A    between atoms: _105  and  _106
REMARK   46  A    between atoms: _109  and  _111
REMARK   47  A    between atoms: _111  and  _112
REMARK   48  A    between atoms: _111  and  _114
REMARK   49  A    between atoms: _114  and  _115
REMARK   50  A    between atoms: _115  and  _116
REMARK   51  A    between atoms: _116  and  _117
REMARK   52  A    between atoms: _117  and  _118
REMARK   53  A    between atoms: _122  and  _124
REMARK   54  A    between atoms: _124  and  _125
REMARK   55  A    between atoms: _124  and  _127
REMARK   56  A    between atoms: _127  and  _128
REMARK   57  A    between atoms: _128  and  _129
REMARK   58  A    between atoms: _131  and  _133
REMARK   59  A    between atoms: _133  and  _134
REMARK   60  A    between atoms: _133  and  _136
REMARK   61  A    between atoms: _136  and  _137
REMARK   62  A    between atoms: _140  and  _142
REMARK   63  A    between atoms: _142  and  _143
REMARK   64  A    between atoms: _145  and  _147
REMARK   65  A    between atoms: _147  and  _148
REMARK   66  A    between atoms: _150  and  _152
REMARK   67  A    between atoms: _152  and  _153
REMARK   68  A    between atoms: _152  and  _155
REMARK   69  A    between atoms: _155  and  _156
REMARK   70  A    between atoms: _159  and  _161
REMARK   71  A    between atoms: _161  and  _162
REMARK   72  A    between atoms: _164  and  _166
REMARK   73  A    between atoms: _166  and  _167
REMARK   74  A    between atoms: _169  and  _171
REMARK   75  A    between atoms: _171  and  _172
REMARK   76  A    between atoms: _171  and  _174
REMARK   77  A    between atoms: _174  and  _175
REMARK   78  A    between atoms: _181  and  _183
REMARK   79  A    between atoms: _183  and  _184
REMARK   80  A    between atoms: _183  and  _186
REMARK   81  A    between atoms: _186  and  _187
REMARK   82  A    between atoms: _190  and  _192
REMARK   83  A    between atoms: _192  and  _193
REMARK   84  A    between atoms: _192  and  _195
REMARK   85  A    between atoms: _198  and  _200
REMARK   86  A    between atoms: _200  and  _201
REMARK   87  A    between atoms: _200  and  _203
REMARK   88  A    between atoms: _203  and  _204
REMARK   89  A    between atoms: _208  and  _209
REMARK   90  A    between atoms: _214  and  _216
REMARK   91  A    between atoms: _216  and  _217
REMARK   92  A    between atoms: _216  and  _219
REMARK   93  A    between atoms: _219  and  _220
REMARK   94  A    between atoms: _224  and  _225
REMARK   95  A    between atoms: _230  and  _232
REMARK   96  A    between atoms: _232  and  _233
REMARK   97  A    between atoms: _232  and  _235
REMARK   98  A    between atoms: _235  and  _236
REMARK   99  A    between atoms: _242  and  _244
REMARK  100  A    between atoms: _244  and  _245
REMARK  101  A    between atoms: _244  and  _247
REMARK  102  A    between atoms: _247  and  _248
REMARK  103  A    between atoms: _253  and  _255
REMARK  104  A    between atoms: _255  and  _256
REMARK  105  A    between atoms: _255  and  _258
REMARK  106  A    between atoms: _261  and  _263
REMARK  107  A    between atoms: _263  and  _264
REMARK  108  A    between atoms: _263  and  _266
REMARK  109  A    between atoms: _266  and  _267
REMARK  110  A    between atoms: _270  and  _272
REMARK  111  A    between atoms: _272  and  _273
REMARK  112  A    between atoms: _275  and  _277
REMARK  113  A    between atoms: _277  and  _278
REMARK  114  A    between atoms: _277  and  _280
REMARK  115  A    between atoms: _280  and  _281
REMARK  116  A    between atoms: _281  and  _282
REMARK  117  A    between atoms: _282  and  _283
REMARK  118  A    between atoms: _292  and  _294
REMARK  119  A    between atoms: _294  and  _295
REMARK  120  A    between atoms: _294  and  _297
REMARK  121  A    between atoms: _297  and  _298
REMARK  122  A    between atoms: _303  and  _305
REMARK  123  A    between atoms: _305  and  _306
REMARK  124  A    between atoms: _305  and  _308
REMARK  125  A    between atoms: _308  and  _309
REMARK  126  A    between atoms: _309  and  _310
REMARK  127  A    between atoms: _310  and  _311
REMARK  128  A    between atoms: _320  and  _322
REMARK  129  A    between atoms: _322  and  _323
REMARK  130  A    between atoms: _322  and  _325
REMARK  131  A    between atoms: _325  and  _326
REMARK  132  A    between atoms: _329  and  _331
REMARK  133  A    between atoms: _331  and  _332
REMARK  134  A    between atoms: _331  and  _334
REMARK  135  A    between atoms: _334  and  _335
REMARK  136  A    between atoms: _338  and  _340
REMARK  137  A    between atoms: _340  and  _341
REMARK  138  A    between atoms: _340  and  _343
REMARK  139  A    between atoms: _343  and  _344
REMARK  140  A    between atoms: _347  and  _349
REMARK  141  A    between atoms: _349  and  _350
REMARK  142  A    between atoms: _349  and  _352
REMARK  143  A    between atoms: _352  and  _353
REMARK  144  A    between atoms: _356  and  _358
REMARK  145  A    between atoms: _358  and  _359
REMARK  146  A    between atoms: _358  and  _361
REMARK  147  A    between atoms: _361  and  _362
REMARK  148  A    between atoms: _365  and  _367
REMARK  149  A    between atoms: _367  and  _368
REMARK  150  A    between atoms: _370  and  _372
REMARK  151  A    between atoms: _372  and  _373
REMARK  152  A    between atoms: _376  and  _378
REMARK  153  A    between atoms: _378  and  _379
REMARK  154  A    between atoms: _378  and  _381
REMARK  155  A    between atoms: _381  and  _382
REMARK  156  A    between atoms: _385  and  _387
REMARK  157  A    between atoms: _387  and  _388
REMARK  158  A    between atoms: _387  and  _390
REMARK  159  A    between atoms: _390  and  _391
REMARK  160  A    between atoms: _394  and  _396
REMARK  161  A    between atoms: _396  and  _397
REMARK  162  A    between atoms: _396  and  _399
REMARK  163  A    between atoms: _399  and  _400
REMARK  164  A    between atoms: _403  and  _405
REMARK  165  A    between atoms: _405  and  _406
REMARK  166  A    between atoms: _405  and  _408
REMARK  167  A    between atoms: _411  and  _413
REMARK  168  A    between atoms: _413  and  _414
REMARK  169  A    between atoms: _413  and  _416
REMARK  170  A    between atoms: _416  and  _417
REMARK  171  A    between atoms: _417  and  _418
REMARK  172  A    between atoms: _418  and  _419
REMARK  173  A    between atoms: _419  and  _420
REMARK  174  A    between atoms: _424  and  _426
REMARK  175  A    between atoms: _426  and  _427
REMARK  176  A    between atoms: _426  and  _429
REMARK  177  A    between atoms: _429  and  _430
REMARK  178  A    between atoms: _430  and  _431
REMARK  179  A    between atoms: _433  and  _435
REMARK  180  A    between atoms: _435  and  _436
REMARK  181  A    between atoms: _435  and  _438
REMARK  182  A    between atoms: _438  and  _439
REMARK  183  A    between atoms: _442  and  _444
REMARK  184  A    between atoms: _444  and  _445
REMARK  185  A    between atoms: _447  and  _449
REMARK  186  A    between atoms: _449  and  _450
REMARK  187  A    between atoms: _452  and  _454
REMARK  188  A    between atoms: _454  and  _455
REMARK  189  A    between atoms: _454  and  _457
REMARK  190  A    between atoms: _457  and  _458
REMARK  191  A    between atoms: _461  and  _463
REMARK  192  A    between atoms: _463  and  _464
REMARK  193  A    between atoms: _466  and  _468
REMARK  194  A    between atoms: _468  and  _469
REMARK  195  A    between atoms: _471  and  _473
REMARK  196  A    between atoms: _473  and  _474
REMARK  197  A    between atoms: _473  and  _476
REMARK  198  A    between atoms: _476  and  _477
REMARK  199  A    between atoms: _480  and  _482
REMARK  200  A    between atoms: _482  and  _483
REMARK  201  A    between atoms: _482  and  _485
REMARK  202  A    between atoms: _488  and  _490
REMARK  203  A    between atoms: _490  and  _491
REMARK  204  A    between atoms: _490  and  _493
REMARK  205  A    between atoms: _493  and  _494
REMARK  206  A    between atoms: _498  and  _499
REMARK  207  A    between atoms: _504  and  _506
REMARK  208  A    between atoms: _506  and  _507
REMARK  209  A    between atoms: _506  and  _509
REMARK  210  A    between atoms: _509  and  _510
REMARK  211  A    between atoms: _514  and  _515
REMARK  212  A    between atoms: _520  and  _522
REMARK  213  A    between atoms: _522  and  _523
REMARK  214  A    between atoms: _522  and  _525
REMARK  215  A    between atoms: _525  and  _526
REMARK  216  A    between atoms: _532  and  _534
REMARK  217  A    between atoms: _534  and  _535
REMARK  218  A    between atoms: _534  and  _537
REMARK  219  A    between atoms: _537  and  _538
REMARK  220  A    between atoms: _543  and  _545
REMARK  221  A    between atoms: _545  and  _546
REMARK  222  A    between atoms: _545  and  _548
REMARK  223  A    between atoms: _551  and  _553
REMARK  224  A    between atoms: _553  and  _554
REMARK  225  A    between atoms: _553  and  _556
REMARK  226  A    between atoms: _556  and  _557
REMARK  227  A    between atoms: _560  and  _562
REMARK  228  A    between atoms: _562  and  _563
REMARK  229  A    between atoms: _565  and  _567
REMARK  230  A    between atoms: _567  and  _568
REMARK  231  A    between atoms: _567  and  _570
REMARK  232  A    between atoms: _570  and  _571
REMARK  233  A    between atoms: _571  and  _572
REMARK  234  A    between atoms: _572  and  _573
REMARK  235  A    between atoms: _582  and  _584
REMARK  236  A    between atoms: _584  and  _585
REMARK  237  A    between atoms: _584  and  _587
REMARK  238  A    between atoms: _587  and  _588
REMARK                            x       y       z     vdW  Elec       q    Type
REMARK                         _______ _______ _______ _____ _____    ______ ____
ROOT
ATOM      1  CA  LEU A   1      18.387  30.825  29.199  0.00  0.00    +0.133 C 
ENDROOT
BRANCH   1   2
ATOM      2  N   LEU A   1      17.917  31.807  28.226  0.00  0.00    -0.239 NA
ATOM      3  H   LEU A   1      18.517  32.632  28.022  0.00  0.00    +0.142 HD
ENDBRANCH   1   2
BRANCH   1   4
ATOM      4  C   LEU A   1      17.892  31.160  30.592  0.00  0.00    +0.224 C 
ATOM      5  O   LEU A   1      18.108  32.271  31.086  0.00  0.00    -0.287 OA
ENDBRANCH   1   4
BRANCH   1   6
ATOM      6  CB  LEU A   1      19.917  30.789  29.220  0.00  0.00    +0.025 C 
BRANCH   6   7
ATOM      7  CG  LEU A   1      20.657  30.259  27.991  0.00  0.00    +0.002 C 
ATOM      8  CD2 LEU A   1      22.141  30.597  28.103  0.00  0.00    +0.000 C 
ATOM      9  CD1 LEU A   1      20.446  28.753  27.875  0.00  0.00    +0.000 C 
ENDBRANCH   6   7
ENDBRANCH   1   6
TORSDOF 4
REMARK  Name = ../refined-set-2016/1msn/1msn_pocket.pdb
REMARK  238 active torsions:
REMARK  status: ('A' for Active; 'I' for Inactive)
REMARK    1  A    between atoms: _1  and  _3
REMARK    2  A    between atoms: _3  and  _4
REMARK    3  A    between atoms: _3  and  _6
REMARK    4  A    between atoms: _6  and  _7
REMARK    5  A    between atoms: _7  and  _8
REMARK    6  A    between atoms: _8  and  _9
REMARK    7  A    between atoms: _18  and  _20
REMARK    8  A    between atoms: _20  and  _21
REMARK    9  A    between atoms: _20  and  _23
REMARK   10  A    between atoms: _23  and  _24
REMARK   11  A    between atoms: _27  and  _29
REMARK   12  A    between atoms: _29  and  _30
REMARK   13  A    between atoms: _29  and  _32
REMARK   14  A    between atoms: _32  and  _33
REMARK   15  A    between atoms: _36  and  _38
REMARK   16  A    between atoms: _38  and  _39
REMARK   17  A    between atoms: _38  and  _41
REMARK   18  A    between atoms: _41  and  _42
REMARK   19  A    between atoms: _45  and  _47
REMARK   20  A    between atoms: _47  and  _48
REMARK   21  A    between atoms: _47  and  _50
REMARK   22  A    between atoms: _50  and  _51
REMARK   23  A    between atoms: _54  and  _56
REMARK   24  A    between atoms: _56  and  _57
REMARK   25  A    between atoms: _59  and  _61
REMARK   26  A    between atoms: _61  and  _62
REMARK   27  A    between atoms: _65  and  _67
REMARK   28  A    between atoms: _67  and  _68
REMARK   29  A    between atoms: _67  and  _70
REMARK   30  A    between atoms: _70  and  _71
REMARK   31  A    between atoms: _74  and  _76
REMARK   32  A    between atoms: _76  and  _77
REMARK   33  A    between atoms: _76  and  _79
REMARK   34  A    between atoms: _79  and  _80
REMARK   35  A    between atoms: _83  and  _85
REMARK   36  A    between atoms: _85  and  _86
REMARK   37  A    between atoms: _85  and  _88
REMARK   38  A    between atoms: _88  and  _89
REMARK   39  A    between atoms: _92  and  _94
REMARK   40  A    between atoms: _94  and  _95
REMARK   41  A    between atoms: _94  and  _97
REMARK   42  A    between atoms: _100  and  _102
REMARK   43  A    between atoms: _102  and  _103
REMARK   44  A    between atoms: _102  and  _105
REMARK   45  A    between atoms: _105  and  _106
REMARK   46  A    between atoms: _109  and  _111
REMARK   47  A    between atoms: _111  and  _112
REMARK   48  A    between atoms: _111  and  _114
REMARK   49  A    between atoms: _114  and  _115
REMARK   50  A    between atoms: _115  and  _116
REMARK   51  A    between atoms: _116  and  _117
REMARK   52  A    between atoms: _117  and  _118
REMARK   53  A    between atoms: _122  and  _124
REMARK   54  A    between atoms: _124  and  _125
REMARK   55  A    between atoms: _124  and  _127
REMARK   56  A    between atoms: _127  and  _128
REMARK   57  A    between atoms: _128  and  _129
REMARK   58  A    between atoms: _131  and  _133
REMARK   59  A    between atoms: _133  and  _134
REMARK   60  A    between atoms: _133  and  _136
REMARK   61  A    between atoms: _136  and  _137
REMARK   62  A    between atoms: _140  and  _142
REMARK   63  A    between atoms: _142  and  _143
REMARK   64  A    between atoms: _145  and  _147
REMARK   65  A    between atoms: _147  and  _148
REMARK   66  A    between atoms: _150  and  _152
REMARK   67  A    between atoms: _152  and  _153
REMARK   68  A    between atoms: _152  and  _155
REMARK   69  A    between atoms: _155  and  _156
REMARK   70  A    between atoms: _159  and  _161
REMARK   71  A    between atoms: _161  and  _162
REMARK   72  A    between atoms: _164  and  _166
REMARK   73  A    between atoms: _166  and  _167
REMARK   74  A    between atoms: _169  and  _171
REMARK   75  A    between atoms: _171  and  _172
REMARK   76  A    between atoms: _171  and  _174
REMARK   77  A    between atoms: _174  and  _175
REMARK   78  A    between atoms: _181  and  _183
REMARK   79  A    between atoms: _183  and  _184
REMARK   80  A    between atoms: _183  and  _186
REMARK   81  A    between atoms: _186  and  _187
REMARK   82  A    between atoms: _190  and  _192
REMARK   83  A    between atoms: _192  and  _193
REMARK   84  A    between atoms: _192  and  _195
REMARK   85  A    between atoms: _198  and  _200
REMARK   86  A    between atoms: _200  and  _201
REMARK   87  A    between atoms: _200  and  _203
REMARK   88  A    between atoms: _203  and  _204
REMARK   89  A    between atoms: _208  and  _209
REMARK   90  A    between atoms: _214  and  _216
REMARK   91  A    between atoms: _216  and  _217
REMARK   92  A    between atoms: _216  and  _219
REMARK   93  A    between atoms: _219  and  _220
REMARK   94  A    between atoms: _224  and  _225
REMARK   95  A    between atoms: _230  and  _232
REMARK   96  A    between atoms: _232  and  _233
REMARK   97  A    between atoms: _232  and  _235
REMARK   98  A    between atoms: _235  and  _236
REMARK   99  A    between atoms: _242  and  _244
REMARK  100  A    between atoms: _244  and  _245
REMARK  101  A    between atoms: _244  and  _247
REMARK  102  A    between atoms: _247  and  _248
REMARK  103  A    between atoms: _253  and  _255
REMARK  104  A    between atoms: _255  and  _256
REMARK  105  A    between atoms: _255  and  _258
REMARK  106  A    between atoms: _261  and  _263
REMARK  107  A    between atoms: _263  and  _264
REMARK  108  A    between atoms: _263  and  _266
REMARK  109  A    between atoms: _266  and  _267
REMARK  110  A    between atoms: _270  and  _272
REMARK  111  A    between atoms: _272  and  _273
REMARK  112  A    between atoms: _275  and  _277
REMARK  113  A    between atoms: _277  and  _278
REMARK  114  A    between atoms: _277  and  _280
REMARK  115  A    between atoms: _280  and  _281
REMARK  116  A    between atoms: _281  and  _282
REMARK  117  A    between atoms: _282  and  _283
REMARK  118  A    between atoms: _292  and  _294
REMARK  119  A    between atoms: _294  and  _295
REMARK  120  A    between atoms: _294  and  _297
REMARK  121  A    between atoms: _297  and  _298
REMARK  122  A    between atoms: _303  and  _305
REMARK  123  A    between atoms: _305  and  _306
REMARK  124  A    between atoms: _305  and  _308
REMARK  125  A    between atoms: _308  and  _309
REMARK  126  A    between atoms: _309  and  _310
REMARK  127  A    between atoms: _310  and  _311
REMARK  128  A    between atoms: _320  and  _322
REMARK  129  A    between atoms: _322  and  _323
REMARK  130  A    between atoms: _322  and  _325
REMARK  131  A    between atoms: _325  and  _326
REMARK  132  A    between atoms: _329  and  _331
REMARK  133  A    between atoms: _331  and  _332
REMARK  134  A    between atoms: _331  and  _334
REMARK  135  A    between atoms: _334  and  _335
REMARK  136  A    between atoms: _338  and  _340
REMARK  137  A    between atoms: _340  and  _341
REMARK  138  A    between atoms: _340  and  _343
REMARK  139  A    between atoms: _343  and  _344
REMARK  140  A    between atoms: _347  and  _349
REMARK  141  A    between atoms: _349  and  _350
REMARK  142  A    between atoms: _349  and  _352
REMARK  143  A    between atoms: _352  and  _353
REMARK  144  A    between atoms: _356  and  _358
REMARK  145  A    between atoms: _358  and  _359
REMARK  146  A    between atoms: _358  and  _361
REMARK  147  A    between atoms: _361  and  _362
REMARK  148  A    between atoms: _365  and  _367
REMARK  149  A    between atoms: _367  and  _368
REMARK  150  A    between atoms: _370  and  _372
REMARK  151  A    between atoms: _372  and  _373
REMARK  152  A    between atoms: _376  and  _378
REMARK  153  A    between atoms: _378  and  _379
REMARK  154  A    between atoms: _378  and  _381
REMARK  155  A    between atoms: _381  and  _382
REMARK  156  A    between atoms: _385  and  _387
REMARK  157  A    between atoms: _387  and  _388
REMARK  158  A    between atoms: _387  and  _390
REMARK  159  A    between atoms: _390  and  _391
REMARK  160  A    between atoms: _394  and  _396
REMARK  161  A    between atoms: _396  and  _397
REMARK  162  A    between atoms: _396  and  _399
REMARK  163  A    between atoms: _399  and  _400
REMARK  164  A    between atoms: _403  and  _405
REMARK  165  A    between atoms: _405  and  _406
REMARK  166  A    between atoms: _405  and  _408
REMARK  167  A    between atoms: _411  and  _413
REMARK  168  A    between atoms: _413  and  _414
REMARK  169  A    between atoms: _413  and  _416
REMARK  170  A    between atoms: _416  and  _417
REMARK  171  A    between atoms: _417  and  _418
REMARK  172  A    between atoms: _418  and  _419
REMARK  173  A    between atoms: _419  and  _420
REMARK  174  A    between atoms: _424  and  _426
REMARK  175  A    between atoms: _426  and  _427
REMARK  176  A    between atoms: _426  and  _429
REMARK  177  A    between atoms: _429  and  _430
REMARK  178  A    between atoms: _430  and  _431
REMARK  179  A    between atoms: _433  and  _435
REMARK  180  A    between atoms: _435  and  _436
REMARK  181  A    between atoms: _435  and  _438
REMARK  182  A    between atoms: _438  and  _439
REMARK  183  A    between atoms: _442  and  _444
REMARK  184  A    between atoms: _444  and  _445
REMARK  185  A    between atoms: _447  and  _449
REMARK  186  A    between atoms: _449  and  _450
REMARK  187  A    between atoms: _452  and  _454
REMARK  188  A    between atoms: _454  and  _455
REMARK  189  A    between atoms: _454  and  _457
REMARK  190  A    between atoms: _457  and  _458
REMARK  191  A    between atoms: _461  and  _463
REMARK  192  A    between atoms: _463  and  _464
REMARK  193  A    between atoms: _466  and  _468
REMARK  194  A    between atoms: _468  and  _469
REMARK  195  A    between atoms: _471  and  _473
REMARK  196  A    between atoms: _473  and  _474
REMARK  197  A    between atoms: _473  and  _476
REMARK  198  A    between atoms: _476  and  _477
REMARK  199  A    between atoms: _480  and  _482
REMARK  200  A    between atoms: _482  and  _483
REMARK  201  A    between atoms: _482  and  _485
REMARK  202  A    between atoms: _488  and  _490
REMARK  203  A    between atoms: _490  and  _491
REMARK  204  A    between atoms: _490  and  _493
REMARK  205  A    between atoms: _493  and  _494
REMARK  206  A    between atoms: _498  and  _499
REMARK  207  A    between atoms: _504  and  _506
REMARK  208  A    between atoms: _506  and  _507
REMARK  209  A    between atoms: _506  and  _509
REMARK  210  A    between atoms: _509  and  _510
REMARK  211  A    between atoms: _514  and  _515
REMARK  212  A    between atoms: _520  and  _522
REMARK  213  A    between atoms: _522  and  _523
REMARK  214  A    between atoms: _522  and  _525
REMARK  215  A    between atoms: _525  and  _526
REMARK  216  A    between atoms: _532  and  _534
REMARK  217  A    between atoms: _534  and  _535
REMARK  218  A    between atoms: _534  and  _537
REMARK  219  A    between atoms: _537  and  _538
REMARK  220  A    between atoms: _543  and  _545
REMARK  221  A    between atoms: _545  and  _546
REMARK  222  A    between atoms: _545  and  _548
REMARK  223  A    between atoms: _551  and  _553
REMARK  224  A    between atoms: _553  and  _554
REMARK  225  A    between atoms: _553  and  _556
REMARK  226  A    between atoms: _556  and  _557
REMARK  227  A    between atoms: _560  and  _562
REMARK  228  A    between atoms: _562  and  _563
REMARK  229  A    between atoms: _565  and  _567
REMARK  230  A    between atoms: _567  and  _568
REMARK  231  A    between atoms: _567  and  _570
REMARK  232  A    between atoms: _570  and  _571
REMARK  233  A    between atoms: _571  and  _572
REMARK  234  A    between atoms: _572  and  _573
REMARK  235  A    between atoms: _582  and  _584
REMARK  236  A    between atoms: _584  and  _585
REMARK  237  A    between atoms: _584  and  _587
REMARK  238  A    between atoms: _587  and  _588
REMARK                            x       y       z     vdW  Elec       q    Type
REMARK                         _______ _______ _______ _____ _____    ______ ____
ROOT
ATOM      1  C   GLY A   5      10.646  24.071  18.512  0.00  0.00    +0.243 C 
ATOM      2  N   ALA A   6      10.581  23.694  19.782  0.00  0.00    -0.297 N 
ATOM      3  H   ALA A   6      10.480  24.417  20.523  0.00  0.00    +0.150 HD
ATOM      4  O   GLY A   5      10.774  23.265  17.586  0.00  0.00    -0.273 OA
ENDROOT
BRANCH   2   5
ATOM      5  CA  ALA A   6      10.648  22.288  20.162  0.00  0.00    +0.149 C 
ATOM      6  CB  ALA A   6      11.762  22.084  21.179  0.00  0.00    +0.031 C 
BRANCH   5   7
ATOM      7  C   ALA A   6       9.315  21.838  20.752  0.00  0.00    +0.241 C 
ATOM      8  O   ALA A   6       8.802  22.475  21.664  0.00  0.00    -0.273 OA
ATOM      9  N   ASP A   7       8.747  20.746  20.245  0.00  0.00    -0.297 N 
ATOM     10  H   ASP A   7       9.207  20.232  19.467  0.00  0.00    +0.150 HD
BRANCH   9  11
ATOM     11  CA  ASP A   7       7.472  20.272  20.787  0.00  0.00    +0.160 C 
BRANCH  11  12
ATOM     12  C   ASP A   7       7.661  19.696  22.189  0.00  0.00    +0.241 C 
ATOM     13  O   ASP A   7       6.780  19.817  23.050  0.00  0.00    -0.273 OA
ATOM     14  N   ASP A   8       8.813  19.066  22.406  0.00  0.00    -0.297 N 
ATOM     15  H   ASP A   8       9.519  19.037  21.643  0.00  0.00    +0.150 HD
BRANCH  14  16
ATOM     16  CA  ASP A   8       9.124  18.414  23.675  0.00  0.00    +0.160 C 
BRANCH  16  17
ATOM     17  C   ASP A   8      10.255  19.066  24.463  0.00  0.00    +0.241 C 
ATOM     18  N   THR A   9      10.425  18.600  25.694  0.00  0.00    -0.295 N 
ATOM     19  H   THR A   9       9.783  17.861  26.044  0.00  0.00    +0.150 HD
ATOM     20  O   ASP A   8      10.955  19.953  23.973  0.00  0.00    -0.273 OA
BRANCH  18  21
ATOM     21  CA  THR A   9      11.478  19.087  26.570  0.00  0.00    +0.176 C 
BRANCH  21  22
ATOM     22  C   THR A   9      12.578  18.032  26.583  0.00  0.00    +0.243 C 
ATOM     23  O   THR A   9      12.346  16.879  26.958  0.00  0.00    -0.273 OA
ATOM     24  N   VAL A  10      13.772  18.427  26.152  0.00  0.00    -0.298 N 
ATOM     25  H   VAL A  10      13.900  19.414  25.850  0.00  0.00    +0.150 HD
BRANCH  24  26
ATOM     26  CA  VAL A  10      14.909  17.511  26.092  0.00  0.00    +0.137 C 
BRANCH  26  27
ATOM     27  CB  VAL A  10      15.479  17.447  24.651  0.00  0.00    +0.026 C 
ATOM     28  CG2 VAL A  10      16.483  16.316  24.532  0.00  0.00    +0.002 C 
ATOM     29  CG1 VAL A  10      14.339  17.260  23.648  0.00  0.00    +0.002 C 
ENDBRANCH  26  27
BRANCH  26  30
ATOM     30  C   VAL A  10      15.998  17.976  27.054  0.00  0.00    +0.227 C 
ATOM     31  O   VAL A  10      16.412  19.136  27.027  0.00  0.00    -0.286 OA
ENDBRANCH  26  30
ENDBRANCH  24  26
ENDBRANCH  21  22
BRANCH  21  32
ATOM     32  CB  THR A   9      10.931  19.326  27.989  0.00  0.00    +0.137 C 
ATOM     33  CG2 THR A   9      12.069  19.562  28.987  0.00  0.00    +0.034 C 
BRANCH  32  34
ATOM     34  OG1 THR A   9      10.072  20.477  27.965  0.00  0.00    -0.382 OA
ATOM     35  HG1 THR A   9       9.323  20.315  27.338  0.00  0.00    +0.210 HD
ENDBRANCH  32  34
ENDBRANCH  21  32
ENDBRANCH  18  21
ENDBRANCH  16  17
BRANCH  16  36
ATOM     36  CB  ASP A   8       9.501  16.953  23.406  0.00  0.00    +0.143 C 
BRANCH  36  37
ATOM     37  CG  ASP A   8       8.598  16.302  22.378  0.00  0.00    +0.367 C 
ATOM     38  OD2 ASP A   8       7.422  16.031  22.697  0.00  0.00    -0.246 OA
ATOM     39  OD1 ASP A   8       9.067  16.079  21.244  0.00  0.00    -0.246 OA
ENDBRANCH  36  37
ENDBRANCH  16  36
ENDBRANCH  14  16
ENDBRANCH  11  12
BRANCH  11  40
ATOM     40  CB  ASP A   7       6.854  19.166  19.919  0.00  0.00    +0.143 C 
BRANCH  40  41
ATOM     41  CG  ASP A   7       6.854  19.492  18.440  0.00  0.00    +0.367 C 
ATOM     42  OD2 ASP A   7       6.669  20.672  18.073  0.00  0.00    -0.246 OA
ATOM     43  OD1 ASP A   7       7.023  18.547  17.641  0.00  0.00    -0.246 OA
ENDBRANCH  40  41
ENDBRANCH  11  40
ENDBRANCH   9  11
ENDBRANCH   5   7
ENDBRANCH   2   5
BRANCH   1  44
ATOM     44  CA  GLY A   5      10.564  25.568  18.239  0.00  0.00    +0.176 C 
BRANCH  44  46
ATOM     45  C   THR A   4       9.260  26.713  19.919  0.00  0.00    +0.243 C 
ATOM     46  N   GLY A   5      10.456  26.395  19.430  0.00  0.00    -0.295 N 
ATOM     47  H   GLY A   5      11.317  26.739  19.901  0.00  0.00    +0.150 HD
ATOM     48  O   THR A   4       8.208  26.337  19.404  0.00  0.00    -0.273 OA
BRANCH  45  49
ATOM     49  CA  THR A   4       9.232  27.586  21.172  0.00  0.00    +0.176 C 
BRANCH  49  52
ATOM     50  C   ASP A   3      11.077  26.641  22.444  0.00  0.00    +0.241 C 
ATOM     51  O   ASP A   3      10.530  25.538  22.495  0.00  0.00    -0.273 OA
ATOM     52  N   THR A   4      10.537  27.683  21.818  0.00  0.00    -0.295 N 
ATOM     53  H   THR A   4      11.055  28.584  21.788  0.00  0.00    +0.150 HD
BRANCH  50  54
ATOM     54  CA  ASP A   3      12.454  26.856  23.083  0.00  0.00    +0.160 C 
BRANCH  54  56
ATOM     55  C   LEU A   2      12.889  28.288  25.031  0.00  0.00    +0.241 C 
ATOM     56  N   ASP A   3      12.463  27.139  24.515  0.00  0.00    -0.297 N 
ATOM     57  H   ASP A   3      12.118  26.404  25.165  0.00  0.00    +0.150 HD
ATOM     58  O   LEU A   2      13.235  29.254  24.350  0.00  0.00    -0.273 OA
BRANCH  55  59
ATOM     59  CA  LEU A   2      12.931  28.352  26.553  0.00  0.00    +0.149 C 
BRANCH  59  61
ATOM     60  C   LEU A   1      15.068  27.207  26.811  0.00  0.00    +0.238 C 
ATOM     61  N   LEU A   2      14.365  28.337  26.864  0.00  0.00    -0.297 N 
ATOM     62  H   LEU A   2      14.840  29.223  27.130  0.00  0.00    +0.150 HD
ATOM     63  O   LEU A   1      14.554  26.116  26.550  0.00  0.00    -0.274 OA
BRANCH  60  64
ATOM     64  CA  LEU A   1      16.567  27.303  27.108  0.00  0.00    +0.145 C 
BRANCH  64  65
ATOM     65  N   LEU A   1      16.978  26.345  28.123  0.00  0.00    -0.238 NA
ATOM     66  H   LEU A   1      16.946  25.330  27.899  0.00  0.00    +0.142 HD
ENDBRANCH  64  65
BRANCH  64  67
ATOM     67  CB  LEU A   1      17.374  27.021  25.837  0.00  0.00    +0.026 C 
BRANCH  67  68
ATOM     68  CG  LEU A   1      17.289  27.927  24.615  0.00  0.00    +0.002 C 
ATOM     69  CD2 LEU A   1      17.927  29.276  24.923  0.00  0.00    +0.000 C 
ATOM     70  CD1 LEU A   1      18.015  27.252  23.459  0.00  0.00    +0.000 C 
ENDBRANCH  67  68
ENDBRANCH  64  67
ENDBRANCH  60  64
ENDBRANCH  59  61
BRANCH  59  71
ATOM     71  CB  LEU A   2      12.286  29.637  27.075  0.00  0.00    +0.029 C 
BRANCH  71  72
ATOM     72  CG  LEU A   2      12.510  29.837  28.581  0.00  0.00    +0.002 C 
ATOM     73  CD2 LEU A   2      12.042  28.586  29.334  0.00  0.00    +0.000 C 
ATOM     74  CD1 LEU A   2      11.752  31.065  29.075  0.00  0.00    +0.000 C 
ENDBRANCH  71  72
ENDBRANCH  59  71
ENDBRANCH  55  59
ENDBRANCH  54  56
BRANCH  54  75
ATOM     75  CB  ASP A   3      13.311  25.607  22.857  0.00  0.00    +0.143 C 
BRANCH  75  76
ATOM     76  CG  ASP A   3      13.738  25.431  21.419  0.00  0.00    +0.367 C 
ATOM     77  OD2 ASP A   3      14.727  24.698  21.196  0.00  0.00    -0.246 OA
ATOM     78  OD1 ASP A   3      13.087  26.007  20.523  0.00  0.00    -0.246 OA
ENDBRANCH  75  76
ENDBRANCH  54  75
ENDBRANCH  50  54
ENDBRANCH  49  52
BRANCH  49  79
ATOM     79  CB  THR A   4       8.694  28.973  20.763  0.00  0.00    +0.137 C 
ATOM     80  CG2 THR A   4       8.491  29.860  21.986  0.00  0.00    +0.034 C 
BRANCH  79  81
ATOM     81  OG1 THR A   4       9.620  29.593  19.865  0.00  0.00    -0.382 OA
ATOM     82  HG1 THR A   4       9.726  29.027  19.060  0.00  0.00    +0.210 HD
ENDBRANCH  79  81
ENDBRANCH  49  79
ENDBRANCH  45  49
ENDBRANCH  44  46
ENDBRANCH   1  44
TORSDOF 35
REMARK  Name = ../refined-set-2016/1msn/1msn_pocket.pdb
REMARK  238 active torsions:
REMARK  status: ('A' for Active; 'I' for Inactive)
REMARK    1  A    between atoms: _1  and  _3
REMARK    2  A    between atoms: _3  and  _4
REMARK    3  A    between atoms: _3  and  _6
REMARK    4  A    between atoms: _6  and  _7
REMARK    5  A    between atoms: _7  and  _8
REMARK    6  A    between atoms: _8  and  _9
REMARK    7  A    between atoms: _18  and  _20
REMARK    8  A    between atoms: _20  and  _21
REMARK    9  A    between atoms: _20  and  _23
REMARK   10  A    between atoms: _23  and  _24
REMARK   11  A    between atoms: _27  and  _29
REMARK   12  A    between atoms: _29  and  _30
REMARK   13  A    between atoms: _29  and  _32
REMARK   14  A    between atoms: _32  and  _33
REMARK   15  A    between atoms: _36  and  _38
REMARK   16  A    between atoms: _38  and  _39
REMARK   17  A    between atoms: _38  and  _41
REMARK   18  A    between atoms: _41  and  _42
REMARK   19  A    between atoms: _45  and  _47
REMARK   20  A    between atoms: _47  and  _48
REMARK   21  A    between atoms: _47  and  _50
REMARK   22  A    between atoms: _50  and  _51
REMARK   23  A    between atoms: _54  and  _56
REMARK   24  A    between atoms: _56  and  _57
REMARK   25  A    between atoms: _59  and  _61
REMARK   26  A    between atoms: _61  and  _62
REMARK   27  A    between atoms: _65  and  _67
REMARK   28  A    between atoms: _67  and  _68
REMARK   29  A    between atoms: _67  and  _70
REMARK   30  A    between atoms: _70  and  _71
REMARK   31  A    between atoms: _74  and  _76
REMARK   32  A    between atoms: _76  and  _77
REMARK   33  A    between atoms: _76  and  _79
REMARK   34  A    between atoms: _79  and  _80
REMARK   35  A    between atoms: _83  and  _85
REMARK   36  A    between atoms: _85  and  _86
REMARK   37  A    between atoms: _85  and  _88
REMARK   38  A    between atoms: _88  and  _89
REMARK   39  A    between atoms: _92  and  _94
REMARK   40  A    between atoms: _94  and  _95
REMARK   41  A    between atoms: _94  and  _97
REMARK   42  A    between atoms: _100  and  _102
REMARK   43  A    between atoms: _102  and  _103
REMARK   44  A    between atoms: _102  and  _105
REMARK   45  A    between atoms: _105  and  _106
REMARK   46  A    between atoms: _109  and  _111
REMARK   47  A    between atoms: _111  and  _112
REMARK   48  A    between atoms: _111  and  _114
REMARK   49  A    between atoms: _114  and  _115
REMARK   50  A    between atoms: _115  and  _116
REMARK   51  A    between atoms: _116  and  _117
REMARK   52  A    between atoms: _117  and  _118
REMARK   53  A    between atoms: _122  and  _124
REMARK   54  A    between atoms: _124  and  _125
REMARK   55  A    between atoms: _124  and  _127
REMARK   56  A    between atoms: _127  and  _128
REMARK   57  A    between atoms: _128  and  _129
REMARK   58  A    between atoms: _131  and  _133
REMARK   59  A    between atoms: _133  and  _134
REMARK   60  A    between atoms: _133  and  _136
REMARK   61  A    between atoms: _136  and  _137
REMARK   62  A    between atoms: _140  and  _142
REMARK   63  A    between atoms: _142  and  _143
REMARK   64  A    between atoms: _145  and  _147
REMARK   65  A    between atoms: _147  and  _148
REMARK   66  A    between atoms: _150  and  _152
REMARK   67  A    between atoms: _152  and  _153
REMARK   68  A    between atoms: _152  and  _155
REMARK   69  A    between atoms: _155  and  _156
REMARK   70  A    between atoms: _159  and  _161
REMARK   71  A    between atoms: _161  and  _162
REMARK   72  A    between atoms: _164  and  _166
REMARK   73  A    between atoms: _166  and  _167
REMARK   74  A    between atoms: _169  and  _171
REMARK   75  A    between atoms: _171  and  _172
REMARK   76  A    between atoms: _171  and  _174
REMARK   77  A    between atoms: _174  and  _175
REMARK   78  A    between atoms: _181  and  _183
REMARK   79  A    between atoms: _183  and  _184
REMARK   80  A    between atoms: _183  and  _186
REMARK   81  A    between atoms: _186  and  _187
REMARK   82  A    between atoms: _190  and  _192
REMARK   83  A    between atoms: _192  and  _193
REMARK   84  A    between atoms: _192  and  _195
REMARK   85  A    between atoms: _198  and  _200
REMARK   86  A    between atoms: _200  and  _201
REMARK   87  A    between atoms: _200  and  _203
REMARK   88  A    between atoms: _203  and  _204
REMARK   89  A    between atoms: _208  and  _209
REMARK   90  A    between atoms: _214  and  _216
REMARK   91  A    between atoms: _216  and  _217
REMARK   92  A    between atoms: _216  and  _219
REMARK   93  A    between atoms: _219  and  _220
REMARK   94  A    between atoms: _224  and  _225
REMARK   95  A    between atoms: _230  and  _232
REMARK   96  A    between atoms: _232  and  _233
REMARK   97  A    between atoms: _232  and  _235
REMARK   98  A    between atoms: _235  and  _236
REMARK   99  A    between atoms: _242  and  _244
REMARK  100  A    between atoms: _244  and  _245
REMARK  101  A    between atoms: _244  and  _247
REMARK  102  A    between atoms: _247  and  _248
REMARK  103  A    between atoms: _253  and  _255
REMARK  104  A    between atoms: _255  and  _256
REMARK  105  A    between atoms: _255  and  _258
REMARK  106  A    between atoms: _261  and  _263
REMARK  107  A    between atoms: _263  and  _264
REMARK  108  A    between atoms: _263  and  _266
REMARK  109  A    between atoms: _266  and  _267
REMARK  110  A    between atoms: _270  and  _272
REMARK  111  A    between atoms: _272  and  _273
REMARK  112  A    between atoms: _275  and  _277
REMARK  113  A    between atoms: _277  and  _278
REMARK  114  A    between atoms: _277  and  _280
REMARK  115  A    between atoms: _280  and  _281
REMARK  116  A    between atoms: _281  and  _282
REMARK  117  A    between atoms: _282  and  _283
REMARK  118  A    between atoms: _292  and  _294
REMARK  119  A    between atoms: _294  and  _295
REMARK  120  A    between atoms: _294  and  _297
REMARK  121  A    between atoms: _297  and  _298
REMARK  122  A    between atoms: _303  and  _305
REMARK  123  A    between atoms: _305  and  _306
REMARK  124  A    between atoms: _305  and  _308
REMARK  125  A    between atoms: _308  and  _309
REMARK  126  A    between atoms: _309  and  _310
REMARK  127  A    between atoms: _310  and  _311
REMARK  128  A    between atoms: _320  and  _322
REMARK  129  A    between atoms: _322  and  _323
REMARK  130  A    between atoms: _322  and  _325
REMARK  131  A    between atoms: _325  and  _326
REMARK  132  A    between atoms: _329  and  _331
REMARK  133  A    between atoms: _331  and  _332
REMARK  134  A    between atoms: _331  and  _334
REMARK  135  A    between atoms: _334  and  _335
REMARK  136  A    between atoms: _338  and  _340
REMARK  137  A    between atoms: _340  and  _341
REMARK  138  A    between atoms: _340  and  _343
REMARK  139  A    between atoms: _343  and  _344
REMARK  140  A    between atoms: _347  and  _349
REMARK  141  A    between atoms: _349  and  _350
REMARK  142  A    between atoms: _349  and  _352
REMARK  143  A    between atoms: _352  and  _353
REMARK  144  A    between atoms: _356  and  _358
REMARK  145  A    between atoms: _358  and  _359
REMARK  146  A    between atoms: _358  and  _361
REMARK  147  A    between atoms: _361  and  _362
REMARK  148  A    between atoms: _365  and  _367
REMARK  149  A    between atoms: _367  and  _368
REMARK  150  A    between atoms: _370  and  _372
REMARK  151  A    between atoms: _372  and  _373
REMARK  152  A    between atoms: _376  and  _378
REMARK  153  A    between atoms: _378  and  _379
REMARK  154  A    between atoms: _378  and  _381
REMARK  155  A    between atoms: _381  and  _382
REMARK  156  A    between atoms: _385  and  _387
REMARK  157  A    between atoms: _387  and  _388
REMARK  158  A    between atoms: _387  and  _390
REMARK  159  A    between atoms: _390  and  _391
REMARK  160  A    between atoms: _394  and  _396
REMARK  161  A    between atoms: _396  and  _397
REMARK  162  A    between atoms: _396  and  _399
REMARK  163  A    between atoms: _399  and  _400
REMARK  164  A    between atoms: _403  and  _405
REMARK  165  A    between atoms: _405  and  _406
REMARK  166  A    between atoms: _405  and  _408
REMARK  167  A    between atoms: _411  and  _413
REMARK  168  A    between atoms: _413  and  _414
REMARK  169  A    between atoms: _413  and  _416
REMARK  170  A    between atoms: _416  and  _417
REMARK  171  A    between atoms: _417  and  _418
REMARK  172  A    between atoms: _418  and  _419
REMARK  173  A    between atoms: _419  and  _420
REMARK  174  A    between atoms: _424  and  _426
REMARK  175  A    between atoms: _426  and  _427
REMARK  176  A    between atoms: _426  and  _429
REMARK  177  A    between atoms: _429  and  _430
REMARK  178  A    between atoms: _430  and  _431
REMARK  179  A    between atoms: _433  and  _435
REMARK  180  A    between atoms: _435  and  _436
REMARK  181  A    between atoms: _435  and  _438
REMARK  182  A    between atoms: _438  and  _439
REMARK  183  A    between atoms: _442  and  _444
REMARK  184  A    between atoms: _444  and  _445
REMARK  185  A    between atoms: _447  and  _449
REMARK  186  A    between atoms: _449  and  _450
REMARK  187  A    between atoms: _452  and  _454
REMARK  188  A    between atoms: _454  and  _455
REMARK  189  A    between atoms: _454  and  _457
REMARK  190  A    between atoms: _457  and  _458
REMARK  191  A    between atoms: _461  and  _463
REMARK  192  A    between atoms: _463  and  _464
REMARK  193  A    between atoms: _466  and  _468
REMARK  194  A    between atoms: _468  and  _469
REMARK  195  A    between atoms: _471  and  _473
REMARK  196  A    between atoms: _473  and  _474
REMARK  197  A    between atoms: _473  and  _476
REMARK  198  A    between atoms: _476  and  _477
REMARK  199  A    between atoms: _480  and  _482
REMARK  200  A    between atoms: _482  and  _483
REMARK  201  A    between atoms: _482  and  _485
REMARK  202  A    between atoms: _488  and  _490
REMARK  203  A    between atoms: _490  and  _491
REMARK  204  A    between atoms: _490  and  _493
REMARK  205  A    between atoms: _493  and  _494
REMARK  206  A    between atoms: _498  and  _499
REMARK  207  A    between atoms: _504  and  _506
REMARK  208  A    between atoms: _506  and  _507
REMARK  209  A    between atoms: _506  and  _509
REMARK  210  A    between atoms: _509  and  _510
REMARK  211  A    between atoms: _514  and  _515
REMARK  212  A    between atoms: _520  and  _522
REMARK  213  A    between atoms: _522  and  _523
REMARK  214  A    between atoms: _522  and  _525
REMARK  215  A    between atoms: _525  and  _526
REMARK  216  A    between atoms: _532  and  _534
REMARK  217  A    between atoms: _534  and  _535
REMARK  218  A    between atoms: _534  and  _537
REMARK  219  A    between atoms: _537  and  _538
REMARK  220  A    between atoms: _543  and  _545
REMARK  221  A    between atoms: _545  and  _546
REMARK  222  A    between atoms: _545  and  _548
REMARK  223  A    between atoms: _551  and  _553
REMARK  224  A    between atoms: _553  and  _554
REMARK  225  A    between atoms: _553  and  _556
REMARK  226  A    between atoms: _556  and  _557
REMARK  227  A    between atoms: _560  and  _562
REMARK  228  A    between atoms: _562  and  _563
REMARK  229  A    between atoms: _565  and  _567
REMARK  230  A    between atoms: _567  and  _568
REMARK  231  A    between atoms: _567  and  _570
REMARK  232  A    between atoms: _570  and  _571
REMARK  233  A    between atoms: _571  and  _572
REMARK  234  A    between atoms: _572  and  _573
REMARK  235  A    between atoms: _582  and  _584
REMARK  236  A    between atoms: _584  and  _585
REMARK  237  A    between atoms: _584  and  _587
REMARK  238  A    between atoms: _587  and  _588
REMARK                            x       y       z     vdW  Elec       q    Type
REMARK                         _______ _______ _______ _____ _____    ______ ____
ROOT
ATOM      1  C   ILE A   3      13.723  13.468  16.784  0.00  0.00    +0.241 C 
ATOM      2  O   ILE A   3      14.876  13.057  16.634  0.00  0.00    -0.273 OA
ATOM      3  N   GLY A   4      13.145  14.337  15.960  0.00  0.00    -0.295 N 
ATOM      4  H   GLY A   4      12.167  14.642  16.137  0.00  0.00    +0.150 HD
ENDROOT
BRANCH   3   5
ATOM      5  CA  GLY A   4      13.866  14.864  14.816  0.00  0.00    +0.176 C 
BRANCH   5   6
ATOM      6  C   GLY A   4      14.333  16.285  15.064  0.00  0.00    +0.243 C 
ATOM      7  O   GLY A   4      13.522  17.171  15.322  0.00  0.00    -0.273 OA
ATOM      8  N   GLY A   5      15.643  16.493  14.996  0.00  0.00    -0.295 N 
ATOM      9  H   GLY A   5      16.277  15.696  14.785  0.00  0.00    +0.150 HD
BRANCH   8  10
ATOM     10  CA  GLY A   5      16.204  17.816  15.212  0.00  0.00    +0.176 C 
BRANCH  10  11
ATOM     11  C   GLY A   5      16.768  18.385  13.924  0.00  0.00    +0.243 C 
ATOM     12  N   ILE A   6      17.549  19.454  14.030  0.00  0.00    -0.297 N 
ATOM     13  H   ILE A   6      17.753  19.856  14.967  0.00  0.00    +0.150 HD
ATOM     14  O   GLY A   5      16.513  17.853  12.840  0.00  0.00    -0.273 OA
BRANCH  12  15
ATOM     15  CA  ILE A   6      18.120  20.065  12.840  0.00  0.00    +0.149 C 
BRANCH  15  16
ATOM     16  C   ILE A   6      19.120  19.151  12.129  0.00  0.00    +0.241 C 
ATOM     17  N   GLY A   7      19.821  18.316  12.890  0.00  0.00    -0.295 N 
ATOM     18  H   GLY A   7      19.668  18.296  13.918  0.00  0.00    +0.150 HD
ATOM     19  O   ILE A   6      19.231  19.182  10.903  0.00  0.00    -0.273 OA
BRANCH  17  20
ATOM     20  CA  GLY A   7      20.801  17.432  12.283  0.00  0.00    +0.176 C 
BRANCH  20  21
ATOM     21  C   GLY A   7      20.329  16.022  11.986  0.00  0.00    +0.243 C 
ATOM     22  N   GLY A   8      19.114  15.691  12.409  0.00  0.00    -0.296 N 
ATOM     23  H   GLY A   8      18.533  16.391  12.914  0.00  0.00    +0.150 HD
ATOM     24  O   GLY A   7      21.056  15.241  11.377  0.00  0.00    -0.273 OA
BRANCH  22  25
ATOM     25  CA  GLY A   8      18.593  14.356  12.170  0.00  0.00    +0.163 C 
BRANCH  25  26
ATOM     26  C   GLY A   8      17.865  13.812  13.383  0.00  0.00    +0.229 C 
ATOM     27  O   GLY A   8      17.528  14.562  14.298  0.00  0.00    -0.286 OA
ENDBRANCH  25  26
ENDBRANCH  22  25
ENDBRANCH  20  21
ENDBRANCH  17  20
ENDBRANCH  15  16
BRANCH  15  28
ATOM     28  CB  ILE A   6      18.793  21.423  13.172  0.00  0.00    +0.027 C 
ATOM     29  CG2 ILE A   6      20.026  21.207  14.036  0.00  0.00    +0.002 C 
BRANCH  28  30
ATOM     30  CG1 ILE A   6      19.150  22.150  11.873  0.00  0.00    +0.002 C 
ATOM     31  CD1 ILE A   6      19.658  23.558  12.081  0.00  0.00    +0.000 C 
ENDBRANCH  28  30
ENDBRANCH  15  28
ENDBRANCH  12  15
ENDBRANCH  10  11
ENDBRANCH   8  10
ENDBRANCH   5   6
ENDBRANCH   3   5
BRANCH   1  32
ATOM     32  CA  ILE A   3      12.871  12.979  17.946  0.00  0.00    +0.149 C 
BRANCH  32  34
ATOM     33  C   MET A   2      12.340  10.644  18.316  0.00  0.00    +0.241 C 
ATOM     34  N   ILE A   3      13.250  11.609  18.272  0.00  0.00    -0.297 N 
ATOM     35  H   ILE A   3      14.246  11.385  18.472  0.00  0.00    +0.150 HD
ATOM     36  O   MET A   2      11.145  10.846  18.122  0.00  0.00    -0.273 OA
BRANCH  33  37
ATOM     37  CA  MET A   2      12.840   9.247  18.644  0.00  0.00    +0.149 C 
BRANCH  37  40
ATOM     38  C   LYS A   1      12.318   8.368  20.859  0.00  0.00    +0.238 C 
ATOM     39  O   LYS A   1      13.471   8.488  21.263  0.00  0.00    -0.274 OA
ATOM     40  N   MET A   2      11.933   8.687  19.631  0.00  0.00    -0.297 N 
ATOM     41  H   MET A   2      10.940   8.530  19.363  0.00  0.00    +0.150 HD
BRANCH  38  42
ATOM     42  CA  LYS A   1      11.227   7.814  21.758  0.00  0.00    +0.145 C 
BRANCH  42  43
ATOM     43  N   LYS A   1      11.756   6.770  22.613  0.00  0.00    -0.238 NA
ATOM     44  H   LYS A   1      12.779   6.737  22.799  0.00  0.00    +0.142 HD
ENDBRANCH  42  43
BRANCH  42  45
ATOM     45  CB  LYS A   1      10.610   8.956  22.575  0.00  0.00    +0.026 C 
BRANCH  45  46
ATOM     46  CG  LYS A   1      10.079  10.070  21.681  0.00  0.00    -0.000 C 
BRANCH  46  47
ATOM     47  CD  LYS A   1       9.009  10.919  22.343  0.00  0.00    -0.024 C 
BRANCH  47  48
ATOM     48  CE  LYS A   1       8.324  11.797  21.303  0.00  0.00    -0.086 C 
BRANCH  48  49
ATOM     49  NZ  LYS A   1       7.162  12.545  21.847  0.00  0.00    +0.380 N 
ATOM     50  HZ1 LYS A   1       7.480  13.162  22.621  0.00  0.00    -0.089 HD
ATOM     51  HZ2 LYS A   1       6.456  11.872  22.207  0.00  0.00    -0.089 HD
ATOM     52  HZ3 LYS A   1       6.739  13.123  21.093  0.00  0.00    -0.089 HD
ENDBRANCH  48  49
ENDBRANCH  47  48
ENDBRANCH  46  47
ENDBRANCH  45  46
ENDBRANCH  42  45
ENDBRANCH  38  42
ENDBRANCH  37  40
BRANCH  37  53
ATOM     53  CB  MET A   2      12.833   8.398  17.372  0.00  0.00    +0.041 C 
BRANCH  53  54
ATOM     54  CG  MET A   2      13.668   7.135  17.442  0.00  0.00    +0.060 C 
BRANCH  54  55
ATOM     55  SD  MET A   2      15.168   7.297  16.442  0.00  0.00    -0.139 S 
ATOM     56  CE  MET A   2      14.463   7.316  14.785  0.00  0.00    +0.069 C 
ENDBRANCH  54  55
ENDBRANCH  53  54
ENDBRANCH  37  53
ENDBRANCH  33  37
ENDBRANCH  32  34
BRANCH  32  57
ATOM     57  CB  ILE A   3      13.055  13.940  19.154  0.00  0.00    +0.027 C 
ATOM     58  CG2 ILE A   3      12.054  13.599  20.252  0.00  0.00    +0.002 C 
BRANCH  57  59
ATOM     59  CG1 ILE A   3      14.486  13.860  19.681  0.00  0.00    +0.002 C 
ATOM     60  CD1 ILE A   3      14.790  14.869  20.772  0.00  0.00    +0.000 C 
ENDBRANCH  57  59
ENDBRANCH  32  57
ENDBRANCH   1  32
TORSDOF 28
REMARK  Name = ../refined-set-2016/1msn/1msn_pocket.pdb
REMARK  238 active torsions:
REMARK  status: ('A' for Active; 'I' for Inactive)
REMARK    1  A    between atoms: _1  and  _3
REMARK    2  A    between atoms: _3  and  _4
REMARK    3  A    between atoms: _3  and  _6
REMARK    4  A    between atoms: _6  and  _7
REMARK    5  A    between atoms: _7  and  _8
REMARK    6  A    between atoms: _8  and  _9
REMARK    7  A    between atoms: _18  and  _20
REMARK    8  A    between atoms: _20  and  _21
REMARK    9  A    between atoms: _20  and  _23
REMARK   10  A    between atoms: _23  and  _24
REMARK   11  A    between atoms: _27  and  _29
REMARK   12  A    between atoms: _29  and  _30
REMARK   13  A    between atoms: _29  and  _32
REMARK   14  A    between atoms: _32  and  _33
REMARK   15  A    between atoms: _36  and  _38
REMARK   16  A    between atoms: _38  and  _39
REMARK   17  A    between atoms: _38  and  _41
REMARK   18  A    between atoms: _41  and  _42
REMARK   19  A    between atoms: _45  and  _47
REMARK   20  A    between atoms: _47  and  _48
REMARK   21  A    between atoms: _47  and  _50
REMARK   22  A    between atoms: _50  and  _51
REMARK   23  A    between atoms: _54  and  _56
REMARK   24  A    between atoms: _56  and  _57
REMARK   25  A    between atoms: _59  and  _61
REMARK   26  A    between atoms: _61  and  _62
REMARK   27  A    between atoms: _65  and  _67
REMARK   28  A    between atoms: _67  and  _68
REMARK   29  A    between atoms: _67  and  _70
REMARK   30  A    between atoms: _70  and  _71
REMARK   31  A    between atoms: _74  and  _76
REMARK   32  A    between atoms: _76  and  _77
REMARK   33  A    between atoms: _76  and  _79
REMARK   34  A    between atoms: _79  and  _80
REMARK   35  A    between atoms: _83  and  _85
REMARK   36  A    between atoms: _85  and  _86
REMARK   37  A    between atoms: _85  and  _88
REMARK   38  A    between atoms: _88  and  _89
REMARK   39  A    between atoms: _92  and  _94
REMARK   40  A    between atoms: _94  and  _95
REMARK   41  A    between atoms: _94  and  _97
REMARK   42  A    between atoms: _100  and  _102
REMARK   43  A    between atoms: _102  and  _103
REMARK   44  A    between atoms: _102  and  _105
REMARK   45  A    between atoms: _105  and  _106
REMARK   46  A    between atoms: _109  and  _111
REMARK   47  A    between atoms: _111  and  _112
REMARK   48  A    between atoms: _111  and  _114
REMARK   49  A    between atoms: _114  and  _115
REMARK   50  A    between atoms: _115  and  _116
REMARK   51  A    between atoms: _116  and  _117
REMARK   52  A    between atoms: _117  and  _118
REMARK   53  A    between atoms: _122  and  _124
REMARK   54  A    between atoms: _124  and  _125
REMARK   55  A    between atoms: _124  and  _127
REMARK   56  A    between atoms: _127  and  _128
REMARK   57  A    between atoms: _128  and  _129
REMARK   58  A    between atoms: _131  and  _133
REMARK   59  A    between atoms: _133  and  _134
REMARK   60  A    between atoms: _133  and  _136
REMARK   61  A    between atoms: _136  and  _137
REMARK   62  A    between atoms: _140  and  _142
REMARK   63  A    between atoms: _142  and  _143
REMARK   64  A    between atoms: _145  and  _147
REMARK   65  A    between atoms: _147  and  _148
REMARK   66  A    between atoms: _150  and  _152
REMARK   67  A    between atoms: _152  and  _153
REMARK   68  A    between atoms: _152  and  _155
REMARK   69  A    between atoms: _155  and  _156
REMARK   70  A    between atoms: _159  and  _161
REMARK   71  A    between atoms: _161  and  _162
REMARK   72  A    between atoms: _164  and  _166
REMARK   73  A    between atoms: _166  and  _167
REMARK   74  A    between atoms: _169  and  _171
REMARK   75  A    between atoms: _171  and  _172
REMARK   76  A    between atoms: _171  and  _174
REMARK   77  A    between atoms: _174  and  _175
REMARK   78  A    between atoms: _181  and  _183
REMARK   79  A    between atoms: _183  and  _184
REMARK   80  A    between atoms: _183  and  _186
REMARK   81  A    between atoms: _186  and  _187
REMARK   82  A    between atoms: _190  and  _192
REMARK   83  A    between atoms: _192  and  _193
REMARK   84  A    between atoms: _192  and  _195
REMARK   85  A    between atoms: _198  and  _200
REMARK   86  A    between atoms: _200  and  _201
REMARK   87  A    between atoms: _200  and  _203
REMARK   88  A    between atoms: _203  and  _204
REMARK   89  A    between atoms: _208  and  _209
REMARK   90  A    between atoms: _214  and  _216
REMARK   91  A    between atoms: _216  and  _217
REMARK   92  A    between atoms: _216  and  _219
REMARK   93  A    between atoms: _219  and  _220
REMARK   94  A    between atoms: _224  and  _225
REMARK   95  A    between atoms: _230  and  _232
REMARK   96  A    between atoms: _232  and  _233
REMARK   97  A    between atoms: _232  and  _235
REMARK   98  A    between atoms: _235  and  _236
REMARK   99  A    between atoms: _242  and  _244
REMARK  100  A    between atoms: _244  and  _245
REMARK  101  A    between atoms: _244  and  _247
REMARK  102  A    between atoms: _247  and  _248
REMARK  103  A    between atoms: _253  and  _255
REMARK  104  A    between atoms: _255  and  _256
REMARK  105  A    between atoms: _255  and  _258
REMARK  106  A    between atoms: _261  and  _263
REMARK  107  A    between atoms: _263  and  _264
REMARK  108  A    between atoms: _263  and  _266
REMARK  109  A    between atoms: _266  and  _267
REMARK  110  A    between atoms: _270  and  _272
REMARK  111  A    between atoms: _272  and  _273
REMARK  112  A    between atoms: _275  and  _277
REMARK  113  A    between atoms: _277  and  _278
REMARK  114  A    between atoms: _277  and  _280
REMARK  115  A    between atoms: _280  and  _281
REMARK  116  A    between atoms: _281  and  _282
REMARK  117  A    between atoms: _282  and  _283
REMARK  118  A    between atoms: _292  and  _294
REMARK  119  A    between atoms: _294  and  _295
REMARK  120  A    between atoms: _294  and  _297
REMARK  121  A    between atoms: _297  and  _298
REMARK  122  A    between atoms: _303  and  _305
REMARK  123  A    between atoms: _305  and  _306
REMARK  124  A    between atoms: _305  and  _308
REMARK  125  A    between atoms: _308  and  _309
REMARK  126  A    between atoms: _309  and  _310
REMARK  127  A    between atoms: _310  and  _311
REMARK  128  A    between atoms: _320  and  _322
REMARK  129  A    between atoms: _322  and  _323
REMARK  130  A    between atoms: _322  and  _325
REMARK  131  A    between atoms: _325  and  _326
REMARK  132  A    between atoms: _329  and  _331
REMARK  133  A    between atoms: _331  and  _332
REMARK  134  A    between atoms: _331  and  _334
REMARK  135  A    between atoms: _334  and  _335
REMARK  136  A    between atoms: _338  and  _340
REMARK  137  A    between atoms: _340  and  _341
REMARK  138  A    between atoms: _340  and  _343
REMARK  139  A    between atoms: _343  and  _344
REMARK  140  A    between atoms: _347  and  _349
REMARK  141  A    between atoms: _349  and  _350
REMARK  142  A    between atoms: _349  and  _352
REMARK  143  A    between atoms: _352  and  _353
REMARK  144  A    between atoms: _356  and  _358
REMARK  145  A    between atoms: _358  and  _359
REMARK  146  A    between atoms: _358  and  _361
REMARK  147  A    between atoms: _361  and  _362
REMARK  148  A    between atoms: _365  and  _367
REMARK  149  A    between atoms: _367  and  _368
REMARK  150  A    between atoms: _370  and  _372
REMARK  151  A    between atoms: _372  and  _373
REMARK  152  A    between atoms: _376  and  _378
REMARK  153  A    between atoms: _378  and  _379
REMARK  154  A    between atoms: _378  and  _381
REMARK  155  A    between atoms: _381  and  _382
REMARK  156  A    between atoms: _385  and  _387
REMARK  157  A    between atoms: _387  and  _388
REMARK  158  A    between atoms: _387  and  _390
REMARK  159  A    between atoms: _390  and  _391
REMARK  160  A    between atoms: _394  and  _396
REMARK  161  A    between atoms: _396  and  _397
REMARK  162  A    between atoms: _396  and  _399
REMARK  163  A    between atoms: _399  and  _400
REMARK  164  A    between atoms: _403  and  _405
REMARK  165  A    between atoms: _405  and  _406
REMARK  166  A    between atoms: _405  and  _408
REMARK  167  A    between atoms: _411  and  _413
REMARK  168  A    between atoms: _413  and  _414
REMARK  169  A    between atoms: _413  and  _416
REMARK  170  A    between atoms: _416  and  _417
REMARK  171  A    between atoms: _417  and  _418
REMARK  172  A    between atoms: _418  and  _419
REMARK  173  A    between atoms: _419  and  _420
REMARK  174  A    between atoms: _424  and  _426
REMARK  175  A    between atoms: _426  and  _427
REMARK  176  A    between atoms: _426  and  _429
REMARK  177  A    between atoms: _429  and  _430
REMARK  178  A    between atoms: _430  and  _431
REMARK  179  A    between atoms: _433  and  _435
REMARK  180  A    between atoms: _435  and  _436
REMARK  181  A    between atoms: _435  and  _438
REMARK  182  A    between atoms: _438  and  _439
REMARK  183  A    between atoms: _442  and  _444
REMARK  184  A    between atoms: _444  and  _445
REMARK  185  A    between atoms: _447  and  _449
REMARK  186  A    between atoms: _449  and  _450
REMARK  187  A    between atoms: _452  and  _454
REMARK  188  A    between atoms: _454  and  _455
REMARK  189  A    between atoms: _454  and  _457
REMARK  190  A    between atoms: _457  and  _458
REMARK  191  A    between atoms: _461  and  _463
REMARK  192  A    between atoms: _463  and  _464
REMARK  193  A    between atoms: _466  and  _468
REMARK  194  A    between atoms: _468  and  _469
REMARK  195  A    between atoms: _471  and  _473
REMARK  196  A    between atoms: _473  and  _474
REMARK  197  A    between atoms: _473  and  _476
REMARK  198  A    between atoms: _476  and  _477
REMARK  199  A    between atoms: _480  and  _482
REMARK  200  A    between atoms: _482  and  _483
REMARK  201  A    between atoms: _482  and  _485
REMARK  202  A    between atoms: _488  and  _490
REMARK  203  A    between atoms: _490  and  _491
REMARK  204  A    between atoms: _490  and  _493
REMARK  205  A    between atoms: _493  and  _494
REMARK  206  A    between atoms: _498  and  _499
REMARK  207  A    between atoms: _504  and  _506
REMARK  208  A    between atoms: _506  and  _507
REMARK  209  A    between atoms: _506  and  _509
REMARK  210  A    between atoms: _509  and  _510
REMARK  211  A    between atoms: _514  and  _515
REMARK  212  A    between atoms: _520  and  _522
REMARK  213  A    between atoms: _522  and  _523
REMARK  214  A    between atoms: _522  and  _525
REMARK  215  A    between atoms: _525  and  _526
REMARK  216  A    between atoms: _532  and  _534
REMARK  217  A    between atoms: _534  and  _535
REMARK  218  A    between atoms: _534  and  _537
REMARK  219  A    between atoms: _537  and  _538
REMARK  220  A    between atoms: _543  and  _545
REMARK  221  A    between atoms: _545  and  _546
REMARK  222  A    between atoms: _545  and  _548
REMARK  223  A    between atoms: _551  and  _553
REMARK  224  A    between atoms: _553  and  _554
REMARK  225  A    between atoms: _553  and  _556
REMARK  226  A    between atoms: _556  and  _557
REMARK  227  A    between atoms: _560  and  _562
REMARK  228  A    between atoms: _562  and  _563
REMARK  229  A    between atoms: _565  and  _567
REMARK  230  A    between atoms: _567  and  _568
REMARK  231  A    between atoms: _567  and  _570
REMARK  232  A    between atoms: _570  and  _571
REMARK  233  A    between atoms: _571  and  _572
REMARK  234  A    between atoms: _572  and  _573
REMARK  235  A    between atoms: _582  and  _584
REMARK  236  A    between atoms: _584  and  _585
REMARK  237  A    between atoms: _584  and  _587
REMARK  238  A    between atoms: _587  and  _588
REMARK                            x       y       z     vdW  Elec       q    Type
REMARK                         _______ _______ _______ _____ _____    ______ ____
ROOT
ATOM      1  CA  ILE A   1      18.186  10.664  17.874  0.00  0.00    +0.133 C 
ENDROOT
BRANCH   1   2
ATOM      2  N   ILE A   1      17.412  11.235  16.785  0.00  0.00    -0.239 NA
ATOM      3  H   ILE A   1      16.466  11.619  16.985  0.00  0.00    +0.142 HD
ENDBRANCH   1   2
BRANCH   1   4
ATOM      4  C   ILE A   1      17.223   9.921  18.793  0.00  0.00    +0.224 C 
ATOM      5  O   ILE A   1      16.013  10.174  18.784  0.00  0.00    -0.287 OA
ENDBRANCH   1   4
BRANCH   1   6
ATOM      6  CB  ILE A   1      18.928  11.740  18.714  0.00  0.00    +0.023 C 
ATOM      7  CG2 ILE A   1      19.864  12.560  17.823  0.00  0.00    +0.002 C 
BRANCH   6   8
ATOM      8  CG1 ILE A   1      17.921  12.651  19.418  0.00  0.00    +0.002 C 
ATOM      9  CD1 ILE A   1      18.532  13.461  20.545  0.00  0.00    +0.000 C 
ENDBRANCH   6   8
ENDBRANCH   1   6
TORSDOF 4
REMARK  Name = ../refined-set-2016/1msn/1msn_pocket.pdb
REMARK  238 active torsions:
REMARK  status: ('A' for Active; 'I' for Inactive)
REMARK    1  A    between atoms: _1  and  _3
REMARK    2  A    between atoms: _3  and  _4
REMARK    3  A    between atoms: _3  and  _6
REMARK    4  A    between atoms: _6  and  _7
REMARK    5  A    between atoms: _7  and  _8
REMARK    6  A    between atoms: _8  and  _9
REMARK    7  A    between atoms: _18  and  _20
REMARK    8  A    between atoms: _20  and  _21
REMARK    9  A    between atoms: _20  and  _23
REMARK   10  A    between atoms: _23  and  _24
REMARK   11  A    between atoms: _27  and  _29
REMARK   12  A    between atoms: _29  and  _30
REMARK   13  A    between atoms: _29  and  _32
REMARK   14  A    between atoms: _32  and  _33
REMARK   15  A    between atoms: _36  and  _38
REMARK   16  A    between atoms: _38  and  _39
REMARK   17  A    between atoms: _38  and  _41
REMARK   18  A    between atoms: _41  and  _42
REMARK   19  A    between atoms: _45  and  _47
REMARK   20  A    between atoms: _47  and  _48
REMARK   21  A    between atoms: _47  and  _50
REMARK   22  A    between atoms: _50  and  _51
REMARK   23  A    between atoms: _54  and  _56
REMARK   24  A    between atoms: _56  and  _57
REMARK   25  A    between atoms: _59  and  _61
REMARK   26  A    between atoms: _61  and  _62
REMARK   27  A    between atoms: _65  and  _67
REMARK   28  A    between atoms: _67  and  _68
REMARK   29  A    between atoms: _67  and  _70
REMARK   30  A    between atoms: _70  and  _71
REMARK   31  A    between atoms: _74  and  _76
REMARK   32  A    between atoms: _76  and  _77
REMARK   33  A    between atoms: _76  and  _79
REMARK   34  A    between atoms: _79  and  _80
REMARK   35  A    between atoms: _83  and  _85
REMARK   36  A    between atoms: _85  and  _86
REMARK   37  A    between atoms: _85  and  _88
REMARK   38  A    between atoms: _88  and  _89
REMARK   39  A    between atoms: _92  and  _94
REMARK   40  A    between atoms: _94  and  _95
REMARK   41  A    between atoms: _94  and  _97
REMARK   42  A    between atoms: _100  and  _102
REMARK   43  A    between atoms: _102  and  _103
REMARK   44  A    between atoms: _102  and  _105
REMARK   45  A    between atoms: _105  and  _106
REMARK   46  A    between atoms: _109  and  _111
REMARK   47  A    between atoms: _111  and  _112
REMARK   48  A    between atoms: _111  and  _114
REMARK   49  A    between atoms: _114  and  _115
REMARK   50  A    between atoms: _115  and  _116
REMARK   51  A    between atoms: _116  and  _117
REMARK   52  A    between atoms: _117  and  _118
REMARK   53  A    between atoms: _122  and  _124
REMARK   54  A    between atoms: _124  and  _125
REMARK   55  A    between atoms: _124  and  _127
REMARK   56  A    between atoms: _127  and  _128
REMARK   57  A    between atoms: _128  and  _129
REMARK   58  A    between atoms: _131  and  _133
REMARK   59  A    between atoms: _133  and  _134
REMARK   60  A    between atoms: _133  and  _136
REMARK   61  A    between atoms: _136  and  _137
REMARK   62  A    between atoms: _140  and  _142
REMARK   63  A    between atoms: _142  and  _143
REMARK   64  A    between atoms: _145  and  _147
REMARK   65  A    between atoms: _147  and  _148
REMARK   66  A    between atoms: _150  and  _152
REMARK   67  A    between atoms: _152  and  _153
REMARK   68  A    between atoms: _152  and  _155
REMARK   69  A    between atoms: _155  and  _156
REMARK   70  A    between atoms: _159  and  _161
REMARK   71  A    between atoms: _161  and  _162
REMARK   72  A    between atoms: _164  and  _166
REMARK   73  A    between atoms: _166  and  _167
REMARK   74  A    between atoms: _169  and  _171
REMARK   75  A    between atoms: _171  and  _172
REMARK   76  A    between atoms: _171  and  _174
REMARK   77  A    between atoms: _174  and  _175
REMARK   78  A    between atoms: _181  and  _183
REMARK   79  A    between atoms: _183  and  _184
REMARK   80  A    between atoms: _183  and  _186
REMARK   81  A    between atoms: _186  and  _187
REMARK   82  A    between atoms: _190  and  _192
REMARK   83  A    between atoms: _192  and  _193
REMARK   84  A    between atoms: _192  and  _195
REMARK   85  A    between atoms: _198  and  _200
REMARK   86  A    between atoms: _200  and  _201
REMARK   87  A    between atoms: _200  and  _203
REMARK   88  A    between atoms: _203  and  _204
REMARK   89  A    between atoms: _208  and  _209
REMARK   90  A    between atoms: _214  and  _216
REMARK   91  A    between atoms: _216  and  _217
REMARK   92  A    between atoms: _216  and  _219
REMARK   93  A    between atoms: _219  and  _220
REMARK   94  A    between atoms: _224  and  _225
REMARK   95  A    between atoms: _230  and  _232
REMARK   96  A    between atoms: _232  and  _233
REMARK   97  A    between atoms: _232  and  _235
REMARK   98  A    between atoms: _235  and  _236
REMARK   99  A    between atoms: _242  and  _244
REMARK  100  A    between atoms: _244  and  _245
REMARK  101  A    between atoms: _244  and  _247
REMARK  102  A    between atoms: _247  and  _248
REMARK  103  A    between atoms: _253  and  _255
REMARK  104  A    between atoms: _255  and  _256
REMARK  105  A    between atoms: _255  and  _258
REMARK  106  A    between atoms: _261  and  _263
REMARK  107  A    between atoms: _263  and  _264
REMARK  108  A    between atoms: _263  and  _266
REMARK  109  A    between atoms: _266  and  _267
REMARK  110  A    between atoms: _270  and  _272
REMARK  111  A    between atoms: _272  and  _273
REMARK  112  A    between atoms: _275  and  _277
REMARK  113  A    between atoms: _277  and  _278
REMARK  114  A    between atoms: _277  and  _280
REMARK  115  A    between atoms: _280  and  _281
REMARK  116  A    between atoms: _281  and  _282
REMARK  117  A    between atoms: _282  and  _283
REMARK  118  A    between atoms: _292  and  _294
REMARK  119  A    between atoms: _294  and  _295
REMARK  120  A    between atoms: _294  and  _297
REMARK  121  A    between atoms: _297  and  _298
REMARK  122  A    between atoms: _303  and  _305
REMARK  123  A    between atoms: _305  and  _306
REMARK  124  A    between atoms: _305  and  _308
REMARK  125  A    between atoms: _308  and  _309
REMARK  126  A    between atoms: _309  and  _310
REMARK  127  A    between atoms: _310  and  _311
REMARK  128  A    between atoms: _320  and  _322
REMARK  129  A    between atoms: _322  and  _323
REMARK  130  A    between atoms: _322  and  _325
REMARK  131  A    between atoms: _325  and  _326
REMARK  132  A    between atoms: _329  and  _331
REMARK  133  A    between atoms: _331  and  _332
REMARK  134  A    between atoms: _331  and  _334
REMARK  135  A    between atoms: _334  and  _335
REMARK  136  A    between atoms: _338  and  _340
REMARK  137  A    between atoms: _340  and  _341
REMARK  138  A    between atoms: _340  and  _343
REMARK  139  A    between atoms: _343  and  _344
REMARK  140  A    between atoms: _347  and  _349
REMARK  141  A    between atoms: _349  and  _350
REMARK  142  A    between atoms: _349  and  _352
REMARK  143  A    between atoms: _352  and  _353
REMARK  144  A    between atoms: _356  and  _358
REMARK  145  A    between atoms: _358  and  _359
REMARK  146  A    between atoms: _358  and  _361
REMARK  147  A    between atoms: _361  and  _362
REMARK  148  A    between atoms: _365  and  _367
REMARK  149  A    between atoms: _367  and  _368
REMARK  150  A    between atoms: _370  and  _372
REMARK  151  A    between atoms: _372  and  _373
REMARK  152  A    between atoms: _376  and  _378
REMARK  153  A    between atoms: _378  and  _379
REMARK  154  A    between atoms: _378  and  _381
REMARK  155  A    between atoms: _381  and  _382
REMARK  156  A    between atoms: _385  and  _387
REMARK  157  A    between atoms: _387  and  _388
REMARK  158  A    between atoms: _387  and  _390
REMARK  159  A    between atoms: _390  and  _391
REMARK  160  A    between atoms: _394  and  _396
REMARK  161  A    between atoms: _396  and  _397
REMARK  162  A    between atoms: _396  and  _399
REMARK  163  A    between atoms: _399  and  _400
REMARK  164  A    between atoms: _403  and  _405
REMARK  165  A    between atoms: _405  and  _406
REMARK  166  A    between atoms: _405  and  _408
REMARK  167  A    between atoms: _411  and  _413
REMARK  168  A    between atoms: _413  and  _414
REMARK  169  A    between atoms: _413  and  _416
REMARK  170  A    between atoms: _416  and  _417
REMARK  171  A    between atoms: _417  and  _418
REMARK  172  A    between atoms: _418  and  _419
REMARK  173  A    between atoms: _419  and  _420
REMARK  174  A    between atoms: _424  and  _426
REMARK  175  A    between atoms: _426  and  _427
REMARK  176  A    between atoms: _426  and  _429
REMARK  177  A    between atoms: _429  and  _430
REMARK  178  A    between atoms: _430  and  _431
REMARK  179  A    between atoms: _433  and  _435
REMARK  180  A    between atoms: _435  and  _436
REMARK  181  A    between atoms: _435  and  _438
REMARK  182  A    between atoms: _438  and  _439
REMARK  183  A    between atoms: _442  and  _444
REMARK  184  A    between atoms: _444  and  _445
REMARK  185  A    between atoms: _447  and  _449
REMARK  186  A    between atoms: _449  and  _450
REMARK  187  A    between atoms: _452  and  _454
REMARK  188  A    between atoms: _454  and  _455
REMARK  189  A    between atoms: _454  and  _457
REMARK  190  A    between atoms: _457  and  _458
REMARK  191  A    between atoms: _461  and  _463
REMARK  192  A    between atoms: _463  and  _464
REMARK  193  A    between atoms: _466  and  _468
REMARK  194  A    between atoms: _468  and  _469
REMARK  195  A    between atoms: _471  and  _473
REMARK  196  A    between atoms: _473  and  _474
REMARK  197  A    between atoms: _473  and  _476
REMARK  198  A    between atoms: _476  and  _477
REMARK  199  A    between atoms: _480  and  _482
REMARK  200  A    between atoms: _482  and  _483
REMARK  201  A    between atoms: _482  and  _485
REMARK  202  A    between atoms: _488  and  _490
REMARK  203  A    between atoms: _490  and  _491
REMARK  204  A    between atoms: _490  and  _493
REMARK  205  A    between atoms: _493  and  _494
REMARK  206  A    between atoms: _498  and  _499
REMARK  207  A    between atoms: _504  and  _506
REMARK  208  A    between atoms: _506  and  _507
REMARK  209  A    between atoms: _506  and  _509
REMARK  210  A    between atoms: _509  and  _510
REMARK  211  A    between atoms: _514  and  _515
REMARK  212  A    between atoms: _520  and  _522
REMARK  213  A    between atoms: _522  and  _523
REMARK  214  A    between atoms: _522  and  _525
REMARK  215  A    between atoms: _525  and  _526
REMARK  216  A    between atoms: _532  and  _534
REMARK  217  A    between atoms: _534  and  _535
REMARK  218  A    between atoms: _534  and  _537
REMARK  219  A    between atoms: _537  and  _538
REMARK  220  A    between atoms: _543  and  _545
REMARK  221  A    between atoms: _545  and  _546
REMARK  222  A    between atoms: _545  and  _548
REMARK  223  A    between atoms: _551  and  _553
REMARK  224  A    between atoms: _553  and  _554
REMARK  225  A    between atoms: _553  and  _556
REMARK  226  A    between atoms: _556  and  _557
REMARK  227  A    between atoms: _560  and  _562
REMARK  228  A    between atoms: _562  and  _563
REMARK  229  A    between atoms: _565  and  _567
REMARK  230  A    between atoms: _567  and  _568
REMARK  231  A    between atoms: _567  and  _570
REMARK  232  A    between atoms: _570  and  _571
REMARK  233  A    between atoms: _571  and  _572
REMARK  234  A    between atoms: _572  and  _573
REMARK  235  A    between atoms: _582  and  _584
REMARK  236  A    between atoms: _584  and  _585
REMARK  237  A    between atoms: _584  and  _587
REMARK  238  A    between atoms: _587  and  _588
REMARK                            x       y       z     vdW  Elec       q    Type
REMARK                         _______ _______ _______ _____ _____    ______ ____
ROOT
ATOM      1  CA  VAL A   1      16.017   9.549  23.925  0.00  0.00    +0.133 C 
ENDROOT
BRANCH   1   2
ATOM      2  CB  VAL A   1      15.406  10.970  23.897  0.00  0.00    +0.023 C 
ATOM      3  CG2 VAL A   1      13.977  10.915  23.393  0.00  0.00    +0.002 C 
ATOM      4  CG1 VAL A   1      16.246  11.881  23.011  0.00  0.00    +0.002 C 
ENDBRANCH   1   2
BRANCH   1   5
ATOM      5  N   VAL A   1      16.010   8.948  22.606  0.00  0.00    -0.239 NA
ATOM      6  H   VAL A   1      15.125   8.554  22.228  0.00  0.00    +0.142 HD
ENDBRANCH   1   5
BRANCH   1   7
ATOM      7  C   VAL A   1      15.206   8.676  24.875  0.00  0.00    +0.224 C 
ATOM      8  O   VAL A   1      14.465   7.792  24.439  0.00  0.00    -0.287 OA
ENDBRANCH   1   7
TORSDOF 3
REMARK  Name = ../refined-set-2016/1msn/1msn_pocket.pdb
REMARK  238 active torsions:
REMARK  status: ('A' for Active; 'I' for Inactive)
REMARK    1  A    between atoms: _1  and  _3
REMARK    2  A    between atoms: _3  and  _4
REMARK    3  A    between atoms: _3  and  _6
REMARK    4  A    between atoms: _6  and  _7
REMARK    5  A    between atoms: _7  and  _8
REMARK    6  A    between atoms: _8  and  _9
REMARK    7  A    between atoms: _18  and  _20
REMARK    8  A    between atoms: _20  and  _21
REMARK    9  A    between atoms: _20  and  _23
REMARK   10  A    between atoms: _23  and  _24
REMARK   11  A    between atoms: _27  and  _29
REMARK   12  A    between atoms: _29  and  _30
REMARK   13  A    between atoms: _29  and  _32
REMARK   14  A    between atoms: _32  and  _33
REMARK   15  A    between atoms: _36  and  _38
REMARK   16  A    between atoms: _38  and  _39
REMARK   17  A    between atoms: _38  and  _41
REMARK   18  A    between atoms: _41  and  _42
REMARK   19  A    between atoms: _45  and  _47
REMARK   20  A    between atoms: _47  and  _48
REMARK   21  A    between atoms: _47  and  _50
REMARK   22  A    between atoms: _50  and  _51
REMARK   23  A    between atoms: _54  and  _56
REMARK   24  A    between atoms: _56  and  _57
REMARK   25  A    between atoms: _59  and  _61
REMARK   26  A    between atoms: _61  and  _62
REMARK   27  A    between atoms: _65  and  _67
REMARK   28  A    between atoms: _67  and  _68
REMARK   29  A    between atoms: _67  and  _70
REMARK   30  A    between atoms: _70  and  _71
REMARK   31  A    between atoms: _74  and  _76
REMARK   32  A    between atoms: _76  and  _77
REMARK   33  A    between atoms: _76  and  _79
REMARK   34  A    between atoms: _79  and  _80
REMARK   35  A    between atoms: _83  and  _85
REMARK   36  A    between atoms: _85  and  _86
REMARK   37  A    between atoms: _85  and  _88
REMARK   38  A    between atoms: _88  and  _89
REMARK   39  A    between atoms: _92  and  _94
REMARK   40  A    between atoms: _94  and  _95
REMARK   41  A    between atoms: _94  and  _97
REMARK   42  A    between atoms: _100  and  _102
REMARK   43  A    between atoms: _102  and  _103
REMARK   44  A    between atoms: _102  and  _105
REMARK   45  A    between atoms: _105  and  _106
REMARK   46  A    between atoms: _109  and  _111
REMARK   47  A    between atoms: _111  and  _112
REMARK   48  A    between atoms: _111  and  _114
REMARK   49  A    between atoms: _114  and  _115
REMARK   50  A    between atoms: _115  and  _116
REMARK   51  A    between atoms: _116  and  _117
REMARK   52  A    between atoms: _117  and  _118
REMARK   53  A    between atoms: _122  and  _124
REMARK   54  A    between atoms: _124  and  _125
REMARK   55  A    between atoms: _124  and  _127
REMARK   56  A    between atoms: _127  and  _128
REMARK   57  A    between atoms: _128  and  _129
REMARK   58  A    between atoms: _131  and  _133
REMARK   59  A    between atoms: _133  and  _134
REMARK   60  A    between atoms: _133  and  _136
REMARK   61  A    between atoms: _136  and  _137
REMARK   62  A    between atoms: _140  and  _142
REMARK   63  A    between atoms: _142  and  _143
REMARK   64  A    between atoms: _145  and  _147
REMARK   65  A    between atoms: _147  and  _148
REMARK   66  A    between atoms: _150  and  _152
REMARK   67  A    between atoms: _152  and  _153
REMARK   68  A    between atoms: _152  and  _155
REMARK   69  A    between atoms: _155  and  _156
REMARK   70  A    between atoms: _159  and  _161
REMARK   71  A    between atoms: _161  and  _162
REMARK   72  A    between atoms: _164  and  _166
REMARK   73  A    between atoms: _166  and  _167
REMARK   74  A    between atoms: _169  and  _171
REMARK   75  A    between atoms: _171  and  _172
REMARK   76  A    between atoms: _171  and  _174
REMARK   77  A    between atoms: _174  and  _175
REMARK   78  A    between atoms: _181  and  _183
REMARK   79  A    between atoms: _183  and  _184
REMARK   80  A    between atoms: _183  and  _186
REMARK   81  A    between atoms: _186  and  _187
REMARK   82  A    between atoms: _190  and  _192
REMARK   83  A    between atoms: _192  and  _193
REMARK   84  A    between atoms: _192  and  _195
REMARK   85  A    between atoms: _198  and  _200
REMARK   86  A    between atoms: _200  and  _201
REMARK   87  A    between atoms: _200  and  _203
REMARK   88  A    between atoms: _203  and  _204
REMARK   89  A    between atoms: _208  and  _209
REMARK   90  A    between atoms: _214  and  _216
REMARK   91  A    between atoms: _216  and  _217
REMARK   92  A    between atoms: _216  and  _219
REMARK   93  A    between atoms: _219  and  _220
REMARK   94  A    between atoms: _224  and  _225
REMARK   95  A    between atoms: _230  and  _232
REMARK   96  A    between atoms: _232  and  _233
REMARK   97  A    between atoms: _232  and  _235
REMARK   98  A    between atoms: _235  and  _236
REMARK   99  A    between atoms: _242  and  _244
REMARK  100  A    between atoms: _244  and  _245
REMARK  101  A    between atoms: _244  and  _247
REMARK  102  A    between atoms: _247  and  _248
REMARK  103  A    between atoms: _253  and  _255
REMARK  104  A    between atoms: _255  and  _256
REMARK  105  A    between atoms: _255  and  _258
REMARK  106  A    between atoms: _261  and  _263
REMARK  107  A    between atoms: _263  and  _264
REMARK  108  A    between atoms: _263  and  _266
REMARK  109  A    between atoms: _266  and  _267
REMARK  110  A    between atoms: _270  and  _272
REMARK  111  A    between atoms: _272  and  _273
REMARK  112  A    between atoms: _275  and  _277
REMARK  113  A    between atoms: _277  and  _278
REMARK  114  A    between atoms: _277  and  _280
REMARK  115  A    between atoms: _280  and  _281
REMARK  116  A    between atoms: _281  and  _282
REMARK  117  A    between atoms: _282  and  _283
REMARK  118  A    between atoms: _292  and  _294
REMARK  119  A    between atoms: _294  and  _295
REMARK  120  A    between atoms: _294  and  _297
REMARK  121  A    between atoms: _297  and  _298
REMARK  122  A    between atoms: _303  and  _305
REMARK  123  A    between atoms: _305  and  _306
REMARK  124  A    between atoms: _305  and  _308
REMARK  125  A    between atoms: _308  and  _309
REMARK  126  A    between atoms: _309  and  _310
REMARK  127  A    between atoms: _310  and  _311
REMARK  128  A    between atoms: _320  and  _322
REMARK  129  A    between atoms: _322  and  _323
REMARK  130  A    between atoms: _322  and  _325
REMARK  131  A    between atoms: _325  and  _326
REMARK  132  A    between atoms: _329  and  _331
REMARK  133  A    between atoms: _331  and  _332
REMARK  134  A    between atoms: _331  and  _334
REMARK  135  A    between atoms: _334  and  _335
REMARK  136  A    between atoms: _338  and  _340
REMARK  137  A    between atoms: _340  and  _341
REMARK  138  A    between atoms: _340  and  _343
REMARK  139  A    between atoms: _343  and  _344
REMARK  140  A    between atoms: _347  and  _349
REMARK  141  A    between atoms: _349  and  _350
REMARK  142  A    between atoms: _349  and  _352
REMARK  143  A    between atoms: _352  and  _353
REMARK  144  A    between atoms: _356  and  _358
REMARK  145  A    between atoms: _358  and  _359
REMARK  146  A    between atoms: _358  and  _361
REMARK  147  A    between atoms: _361  and  _362
REMARK  148  A    between atoms: _365  and  _367
REMARK  149  A    between atoms: _367  and  _368
REMARK  150  A    between atoms: _370  and  _372
REMARK  151  A    between atoms: _372  and  _373
REMARK  152  A    between atoms: _376  and  _378
REMARK  153  A    between atoms: _378  and  _379
REMARK  154  A    between atoms: _378  and  _381
REMARK  155  A    between atoms: _381  and  _382
REMARK  156  A    between atoms: _385  and  _387
REMARK  157  A    between atoms: _387  and  _388
REMARK  158  A    between atoms: _387  and  _390
REMARK  159  A    between atoms: _390  and  _391
REMARK  160  A    between atoms: _394  and  _396
REMARK  161  A    between atoms: _396  and  _397
REMARK  162  A    between atoms: _396  and  _399
REMARK  163  A    between atoms: _399  and  _400
REMARK  164  A    between atoms: _403  and  _405
REMARK  165  A    between atoms: _405  and  _406
REMARK  166  A    between atoms: _405  and  _408
REMARK  167  A    between atoms: _411  and  _413
REMARK  168  A    between atoms: _413  and  _414
REMARK  169  A    between atoms: _413  and  _416
REMARK  170  A    between atoms: _416  and  _417
REMARK  171  A    between atoms: _417  and  _418
REMARK  172  A    between atoms: _418  and  _419
REMARK  173  A    between atoms: _419  and  _420
REMARK  174  A    between atoms: _424  and  _426
REMARK  175  A    between atoms: _426  and  _427
REMARK  176  A    between atoms: _426  and  _429
REMARK  177  A    between atoms: _429  and  _430
REMARK  178  A    between atoms: _430  and  _431
REMARK  179  A    between atoms: _433  and  _435
REMARK  180  A    between atoms: _435  and  _436
REMARK  181  A    between atoms: _435  and  _438
REMARK  182  A    between atoms: _438  and  _439
REMARK  183  A    between atoms: _442  and  _444
REMARK  184  A    between atoms: _444  and  _445
REMARK  185  A    between atoms: _447  and  _449
REMARK  186  A    between atoms: _449  and  _450
REMARK  187  A    between atoms: _452  and  _454
REMARK  188  A    between atoms: _454  and  _455
REMARK  189  A    between atoms: _454  and  _457
REMARK  190  A    between atoms: _457  and  _458
REMARK  191  A    between atoms: _461  and  _463
REMARK  192  A    between atoms: _463  and  _464
REMARK  193  A    between atoms: _466  and  _468
REMARK  194  A    between atoms: _468  and  _469
REMARK  195  A    between atoms: _471  and  _473
REMARK  196  A    between atoms: _473  and  _474
REMARK  197  A    between atoms: _473  and  _476
REMARK  198  A    between atoms: _476  and  _477
REMARK  199  A    between atoms: _480  and  _482
REMARK  200  A    between atoms: _482  and  _483
REMARK  201  A    between atoms: _482  and  _485
REMARK  202  A    between atoms: _488  and  _490
REMARK  203  A    between atoms: _490  and  _491
REMARK  204  A    between atoms: _490  and  _493
REMARK  205  A    between atoms: _493  and  _494
REMARK  206  A    between atoms: _498  and  _499
REMARK  207  A    between atoms: _504  and  _506
REMARK  208  A    between atoms: _506  and  _507
REMARK  209  A    between atoms: _506  and  _509
REMARK  210  A    between atoms: _509  and  _510
REMARK  211  A    between atoms: _514  and  _515
REMARK  212  A    between atoms: _520  and  _522
REMARK  213  A    between atoms: _522  and  _523
REMARK  214  A    between atoms: _522  and  _525
REMARK  215  A    between atoms: _525  and  _526
REMARK  216  A    between atoms: _532  and  _534
REMARK  217  A    between atoms: _534  and  _535
REMARK  218  A    between atoms: _534  and  _537
REMARK  219  A    between atoms: _537  and  _538
REMARK  220  A    between atoms: _543  and  _545
REMARK  221  A    between atoms: _545  and  _546
REMARK  222  A    between atoms: _545  and  _548
REMARK  223  A    between atoms: _551  and  _553
REMARK  224  A    between atoms: _553  and  _554
REMARK  225  A    between atoms: _553  and  _556
REMARK  226  A    between atoms: _556  and  _557
REMARK  227  A    between atoms: _560  and  _562
REMARK  228  A    between atoms: _562  and  _563
REMARK  229  A    between atoms: _565  and  _567
REMARK  230  A    between atoms: _567  and  _568
REMARK  231  A    between atoms: _567  and  _570
REMARK  232  A    between atoms: _570  and  _571
REMARK  233  A    between atoms: _571  and  _572
REMARK  234  A    between atoms: _572  and  _573
REMARK  235  A    between atoms: _582  and  _584
REMARK  236  A    between atoms: _584  and  _585
REMARK  237  A    between atoms: _584  and  _587
REMARK  238  A    between atoms: _587  and  _588
REMARK                            x       y       z     vdW  Elec       q    Type
REMARK                         _______ _______ _______ _____ _____    ______ ____
ROOT
ATOM      1  CA  LEU A   1      13.218  13.370  27.400  0.00  0.00    +0.133 C 
ENDROOT
BRANCH   1   2
ATOM      2  N   LEU A   1      12.449  14.311  28.211  0.00  0.00    -0.239 NA
ATOM      3  H   LEU A   1      12.509  15.327  27.999  0.00  0.00    +0.142 HD
ENDBRANCH   1   2
BRANCH   1   4
ATOM      4  C   LEU A   1      14.702  13.535  27.704  0.00  0.00    +0.224 C 
ATOM      5  O   LEU A   1      15.227  14.647  27.676  0.00  0.00    -0.287 OA
ENDBRANCH   1   4
BRANCH   1   6
ATOM      6  CB  LEU A   1      12.966  13.631  25.910  0.00  0.00    +0.025 C 
BRANCH   6   7
ATOM      7  CG  LEU A   1      11.500  13.755  25.479  0.00  0.00    +0.002 C 
ATOM      8  CD2 LEU A   1      10.747  12.457  25.813  0.00  0.00    +0.000 C 
ATOM      9  CD1 LEU A   1      11.429  14.058  23.983  0.00  0.00    +0.000 C 
ENDBRANCH   6   7
ENDBRANCH   1   6
TORSDOF 4
REMARK  Name = ../refined-set-2016/1msn/1msn_pocket.pdb
REMARK  238 active torsions:
REMARK  status: ('A' for Active; 'I' for Inactive)
REMARK    1  A    between atoms: _1  and  _3
REMARK    2  A    between atoms: _3  and  _4
REMARK    3  A    between atoms: _3  and  _6
REMARK    4  A    between atoms: _6  and  _7
REMARK    5  A    between atoms: _7  and  _8
REMARK    6  A    between atoms: _8  and  _9
REMARK    7  A    between atoms: _18  and  _20
REMARK    8  A    between atoms: _20  and  _21
REMARK    9  A    between atoms: _20  and  _23
REMARK   10  A    between atoms: _23  and  _24
REMARK   11  A    between atoms: _27  and  _29
REMARK   12  A    between atoms: _29  and  _30
REMARK   13  A    between atoms: _29  and  _32
REMARK   14  A    between atoms: _32  and  _33
REMARK   15  A    between atoms: _36  and  _38
REMARK   16  A    between atoms: _38  and  _39
REMARK   17  A    between atoms: _38  and  _41
REMARK   18  A    between atoms: _41  and  _42
REMARK   19  A    between atoms: _45  and  _47
REMARK   20  A    between atoms: _47  and  _48
REMARK   21  A    between atoms: _47  and  _50
REMARK   22  A    between atoms: _50  and  _51
REMARK   23  A    between atoms: _54  and  _56
REMARK   24  A    between atoms: _56  and  _57
REMARK   25  A    between atoms: _59  and  _61
REMARK   26  A    between atoms: _61  and  _62
REMARK   27  A    between atoms: _65  and  _67
REMARK   28  A    between atoms: _67  and  _68
REMARK   29  A    between atoms: _67  and  _70
REMARK   30  A    between atoms: _70  and  _71
REMARK   31  A    between atoms: _74  and  _76
REMARK   32  A    between atoms: _76  and  _77
REMARK   33  A    between atoms: _76  and  _79
REMARK   34  A    between atoms: _79  and  _80
REMARK   35  A    between atoms: _83  and  _85
REMARK   36  A    between atoms: _85  and  _86
REMARK   37  A    between atoms: _85  and  _88
REMARK   38  A    between atoms: _88  and  _89
REMARK   39  A    between atoms: _92  and  _94
REMARK   40  A    between atoms: _94  and  _95
REMARK   41  A    between atoms: _94  and  _97
REMARK   42  A    between atoms: _100  and  _102
REMARK   43  A    between atoms: _102  and  _103
REMARK   44  A    between atoms: _102  and  _105
REMARK   45  A    between atoms: _105  and  _106
REMARK   46  A    between atoms: _109  and  _111
REMARK   47  A    between atoms: _111  and  _112
REMARK   48  A    between atoms: _111  and  _114
REMARK   49  A    between atoms: _114  and  _115
REMARK   50  A    between atoms: _115  and  _116
REMARK   51  A    between atoms: _116  and  _117
REMARK   52  A    between atoms: _117  and  _118
REMARK   53  A    between atoms: _122  and  _124
REMARK   54  A    between atoms: _124  and  _125
REMARK   55  A    between atoms: _124  and  _127
REMARK   56  A    between atoms: _127  and  _128
REMARK   57  A    between atoms: _128  and  _129
REMARK   58  A    between atoms: _131  and  _133
REMARK   59  A    between atoms: _133  and  _134
REMARK   60  A    between atoms: _133  and  _136
REMARK   61  A    between atoms: _136  and  _137
REMARK   62  A    between atoms: _140  and  _142
REMARK   63  A    between atoms: _142  and  _143
REMARK   64  A    between atoms: _145  and  _147
REMARK   65  A    between atoms: _147  and  _148
REMARK   66  A    between atoms: _150  and  _152
REMARK   67  A    between atoms: _152  and  _153
REMARK   68  A    between atoms: _152  and  _155
REMARK   69  A    between atoms: _155  and  _156
REMARK   70  A    between atoms: _159  and  _161
REMARK   71  A    between atoms: _161  and  _162
REMARK   72  A    between atoms: _164  and  _166
REMARK   73  A    between atoms: _166  and  _167
REMARK   74  A    between atoms: _169  and  _171
REMARK   75  A    between atoms: _171  and  _172
REMARK   76  A    between atoms: _171  and  _174
REMARK   77  A    between atoms: _174  and  _175
REMARK   78  A    between atoms: _181  and  _183
REMARK   79  A    between atoms: _183  and  _184
REMARK   80  A    between atoms: _183  and  _186
REMARK   81  A    between atoms: _186  and  _187
REMARK   82  A    between atoms: _190  and  _192
REMARK   83  A    between atoms: _192  and  _193
REMARK   84  A    between atoms: _192  and  _195
REMARK   85  A    between atoms: _198  and  _200
REMARK   86  A    between atoms: _200  and  _201
REMARK   87  A    between atoms: _200  and  _203
REMARK   88  A    between atoms: _203  and  _204
REMARK   89  A    between atoms: _208  and  _209
REMARK   90  A    between atoms: _214  and  _216
REMARK   91  A    between atoms: _216  and  _217
REMARK   92  A    between atoms: _216  and  _219
REMARK   93  A    between atoms: _219  and  _220
REMARK   94  A    between atoms: _224  and  _225
REMARK   95  A    between atoms: _230  and  _232
REMARK   96  A    between atoms: _232  and  _233
REMARK   97  A    between atoms: _232  and  _235
REMARK   98  A    between atoms: _235  and  _236
REMARK   99  A    between atoms: _242  and  _244
REMARK  100  A    between atoms: _244  and  _245
REMARK  101  A    between atoms: _244  and  _247
REMARK  102  A    between atoms: _247  and  _248
REMARK  103  A    between atoms: _253  and  _255
REMARK  104  A    between atoms: _255  and  _256
REMARK  105  A    between atoms: _255  and  _258
REMARK  106  A    between atoms: _261  and  _263
REMARK  107  A    between atoms: _263  and  _264
REMARK  108  A    between atoms: _263  and  _266
REMARK  109  A    between atoms: _266  and  _267
REMARK  110  A    between atoms: _270  and  _272
REMARK  111  A    between atoms: _272  and  _273
REMARK  112  A    between atoms: _275  and  _277
REMARK  113  A    between atoms: _277  and  _278
REMARK  114  A    between atoms: _277  and  _280
REMARK  115  A    between atoms: _280  and  _281
REMARK  116  A    between atoms: _281  and  _282
REMARK  117  A    between atoms: _282  and  _283
REMARK  118  A    between atoms: _292  and  _294
REMARK  119  A    between atoms: _294  and  _295
REMARK  120  A    between atoms: _294  and  _297
REMARK  121  A    between atoms: _297  and  _298
REMARK  122  A    between atoms: _303  and  _305
REMARK  123  A    between atoms: _305  and  _306
REMARK  124  A    between atoms: _305  and  _308
REMARK  125  A    between atoms: _308  and  _309
REMARK  126  A    between atoms: _309  and  _310
REMARK  127  A    between atoms: _310  and  _311
REMARK  128  A    between atoms: _320  and  _322
REMARK  129  A    between atoms: _322  and  _323
REMARK  130  A    between atoms: _322  and  _325
REMARK  131  A    between atoms: _325  and  _326
REMARK  132  A    between atoms: _329  and  _331
REMARK  133  A    between atoms: _331  and  _332
REMARK  134  A    between atoms: _331  and  _334
REMARK  135  A    between atoms: _334  and  _335
REMARK  136  A    between atoms: _338  and  _340
REMARK  137  A    between atoms: _340  and  _341
REMARK  138  A    between atoms: _340  and  _343
REMARK  139  A    between atoms: _343  and  _344
REMARK  140  A    between atoms: _347  and  _349
REMARK  141  A    between atoms: _349  and  _350
REMARK  142  A    between atoms: _349  and  _352
REMARK  143  A    between atoms: _352  and  _353
REMARK  144  A    between atoms: _356  and  _358
REMARK  145  A    between atoms: _358  and  _359
REMARK  146  A    between atoms: _358  and  _361
REMARK  147  A    between atoms: _361  and  _362
REMARK  148  A    between atoms: _365  and  _367
REMARK  149  A    between atoms: _367  and  _368
REMARK  150  A    between atoms: _370  and  _372
REMARK  151  A    between atoms: _372  and  _373
REMARK  152  A    between atoms: _376  and  _378
REMARK  153  A    between atoms: _378  and  _379
REMARK  154  A    between atoms: _378  and  _381
REMARK  155  A    between atoms: _381  and  _382
REMARK  156  A    between atoms: _385  and  _387
REMARK  157  A    between atoms: _387  and  _388
REMARK  158  A    between atoms: _387  and  _390
REMARK  159  A    between atoms: _390  and  _391
REMARK  160  A    between atoms: _394  and  _396
REMARK  161  A    between atoms: _396  and  _397
REMARK  162  A    between atoms: _396  and  _399
REMARK  163  A    between atoms: _399  and  _400
REMARK  164  A    between atoms: _403  and  _405
REMARK  165  A    between atoms: _405  and  _406
REMARK  166  A    between atoms: _405  and  _408
REMARK  167  A    between atoms: _411  and  _413
REMARK  168  A    between atoms: _413  and  _414
REMARK  169  A    between atoms: _413  and  _416
REMARK  170  A    between atoms: _416  and  _417
REMARK  171  A    between atoms: _417  and  _418
REMARK  172  A    between atoms: _418  and  _419
REMARK  173  A    between atoms: _419  and  _420
REMARK  174  A    between atoms: _424  and  _426
REMARK  175  A    between atoms: _426  and  _427
REMARK  176  A    between atoms: _426  and  _429
REMARK  177  A    between atoms: _429  and  _430
REMARK  178  A    between atoms: _430  and  _431
REMARK  179  A    between atoms: _433  and  _435
REMARK  180  A    between atoms: _435  and  _436
REMARK  181  A    between atoms: _435  and  _438
REMARK  182  A    between atoms: _438  and  _439
REMARK  183  A    between atoms: _442  and  _444
REMARK  184  A    between atoms: _444  and  _445
REMARK  185  A    between atoms: _447  and  _449
REMARK  186  A    between atoms: _449  and  _450
REMARK  187  A    between atoms: _452  and  _454
REMARK  188  A    between atoms: _454  and  _455
REMARK  189  A    between atoms: _454  and  _457
REMARK  190  A    between atoms: _457  and  _458
REMARK  191  A    between atoms: _461  and  _463
REMARK  192  A    between atoms: _463  and  _464
REMARK  193  A    between atoms: _466  and  _468
REMARK  194  A    between atoms: _468  and  _469
REMARK  195  A    between atoms: _471  and  _473
REMARK  196  A    between atoms: _473  and  _474
REMARK  197  A    between atoms: _473  and  _476
REMARK  198  A    between atoms: _476  and  _477
REMARK  199  A    between atoms: _480  and  _482
REMARK  200  A    between atoms: _482  and  _483
REMARK  201  A    between atoms: _482  and  _485
REMARK  202  A    between atoms: _488  and  _490
REMARK  203  A    between atoms: _490  and  _491
REMARK  204  A    between atoms: _490  and  _493
REMARK  205  A    between atoms: _493  and  _494
REMARK  206  A    between atoms: _498  and  _499
REMARK  207  A    between atoms: _504  and  _506
REMARK  208  A    between atoms: _506  and  _507
REMARK  209  A    between atoms: _506  and  _509
REMARK  210  A    between atoms: _509  and  _510
REMARK  211  A    between atoms: _514  and  _515
REMARK  212  A    between atoms: _520  and  _522
REMARK  213  A    between atoms: _522  and  _523
REMARK  214  A    between atoms: _522  and  _525
REMARK  215  A    between atoms: _525  and  _526
REMARK  216  A    between atoms: _532  and  _534
REMARK  217  A    between atoms: _534  and  _535
REMARK  218  A    between atoms: _534  and  _537
REMARK  219  A    between atoms: _537  and  _538
REMARK  220  A    between atoms: _543  and  _545
REMARK  221  A    between atoms: _545  and  _546
REMARK  222  A    between atoms: _545  and  _548
REMARK  223  A    between atoms: _551  and  _553
REMARK  224  A    between atoms: _553  and  _554
REMARK  225  A    between atoms: _553  and  _556
REMARK  226  A    between atoms: _556  and  _557
REMARK  227  A    between atoms: _560  and  _562
REMARK  228  A    between atoms: _562  and  _563
REMARK  229  A    between atoms: _565  and  _567
REMARK  230  A    between atoms: _567  and  _568
REMARK  231  A    between atoms: _567  and  _570
REMARK  232  A    between atoms: _570  and  _571
REMARK  233  A    between atoms: _571  and  _572
REMARK  234  A    between atoms: _572  and  _573
REMARK  235  A    between atoms: _582  and  _584
REMARK  236  A    between atoms: _584  and  _585
REMARK  237  A    between atoms: _584  and  _587
REMARK  238  A    between atoms: _587  and  _588
REMARK                            x       y       z     vdW  Elec       q    Type
REMARK                         _______ _______ _______ _____ _____    ______ ____
ROOT
ATOM      1  C   ASN A   5      17.549  22.449  27.540  0.00  0.00    +0.241 C 
ATOM      2  O   ASN A   5      17.566  23.669  27.707  0.00  0.00    -0.273 OA
ATOM      3  N   VAL A   6      16.631  21.839  26.805  0.00  0.00    -0.297 N 
ATOM      4  H   VAL A   6      16.661  20.804  26.703  0.00  0.00    +0.150 HD
ENDROOT
BRANCH   1   5
ATOM      5  CA  ASN A   5      18.630  21.571  28.160  0.00  0.00    +0.158 C 
BRANCH   5   7
ATOM      6  C   PHE A   4      20.070  21.775  26.239  0.00  0.00    +0.241 C 
ATOM      7  N   ASN A   5      19.799  22.117  27.495  0.00  0.00    -0.297 N 
ATOM      8  H   ASN A   5      20.425  22.776  28.001  0.00  0.00    +0.150 HD
ATOM      9  O   PHE A   4      19.416  20.935  25.619  0.00  0.00    -0.273 OA
BRANCH   6  10
ATOM     10  CA  PHE A   4      21.242  22.491  25.585  0.00  0.00    +0.153 C 
BRANCH  10  13
ATOM     11  C   PRO A   3      23.006  21.546  24.156  0.00  0.00    +0.241 C 
ATOM     12  O   PRO A   3      23.911  22.062  24.807  0.00  0.00    -0.273 OA
ATOM     13  N   PHE A   4      21.713  21.706  24.439  0.00  0.00    -0.297 N 
ATOM     14  H   PHE A   4      21.008  21.255  23.821  0.00  0.00    +0.150 HD
BRANCH  11  18
ATOM     15  C   THR A   2      22.265  18.598  23.744  0.00  0.00    +0.246 C 
ATOM     16  O   THR A   2      22.942  18.582  24.771  0.00  0.00    -0.273 OA
ATOM     17  N   PRO A   3      22.391  19.563  22.819  0.00  0.00    -0.272 N 
ATOM     18  CA  PRO A   3      23.321  20.690  22.936  0.00  0.00    +0.152 C 
ATOM     19  CB  PRO A   3      23.098  21.462  21.637  0.00  0.00    +0.031 C 
ATOM     20  CG  PRO A   3      22.628  20.421  20.692  0.00  0.00    +0.024 C 
ATOM     21  CD  PRO A   3      21.678  19.617  21.532  0.00  0.00    +0.094 C 
BRANCH  15  22
ATOM     22  CA  THR A   2      21.247  17.498  23.465  0.00  0.00    +0.176 C 
BRANCH  22  24
ATOM     23  C   PRO A   1      21.932  15.194  23.123  0.00  0.00    +0.239 C 
ATOM     24  N   THR A   2      21.717  16.209  23.949  0.00  0.00    -0.295 N 
ATOM     25  H   THR A   2      21.888  16.081  24.967  0.00  0.00    +0.150 HD
ATOM     26  O   PRO A   1      21.763  15.275  21.910  0.00  0.00    -0.274 OA
BRANCH  23  28
ATOM     27  N   PRO A   1      21.305  13.046  24.200  0.00  0.00    -0.210 NA
ATOM     28  CA  PRO A   1      22.413  13.899  23.764  0.00  0.00    +0.149 C 
ATOM     29  CB  PRO A   1      23.168  13.004  22.785  0.00  0.00    +0.028 C 
ATOM     30  CG  PRO A   1      22.066  12.205  22.157  0.00  0.00    +0.021 C 
ATOM     31  CD  PRO A   1      21.198  11.844  23.352  0.00  0.00    +0.089 C 
ENDBRANCH  23  28
ENDBRANCH  22  24
BRANCH  22  32
ATOM     32  CB  THR A   2      19.893  17.874  24.122  0.00  0.00    +0.137 C 
ATOM     33  CG2 THR A   2      20.000  17.828  25.641  0.00  0.00    +0.034 C 
BRANCH  32  34
ATOM     34  OG1 THR A   2      19.510  19.193  23.710  0.00  0.00    -0.382 OA
ATOM     35  HG1 THR A   2      20.204  19.840  23.991  0.00  0.00    +0.210 HD
ENDBRANCH  32  34
ENDBRANCH  22  32
ENDBRANCH  15  22
ENDBRANCH  11  18
ENDBRANCH  10  13
BRANCH  10  36
ATOM     36  CB  PHE A   4      20.683  23.864  25.171  0.00  0.00    +0.055 C 
BRANCH  36  37
ATOM     37  CG  PHE A   4      21.660  24.770  24.487  0.00  0.00    -0.020 A 
ATOM     38  CD2 PHE A   4      22.239  25.828  25.180  0.00  0.00    -0.004 A 
ATOM     39  CE2 PHE A   4      23.100  26.718  24.537  0.00  0.00    -0.000 A 
ATOM     40  CZ  PHE A   4      23.389  26.549  23.186  0.00  0.00    -0.000 A 
ATOM     41  CE1 PHE A   4      22.820  25.496  22.486  0.00  0.00    -0.000 A 
ATOM     42  CD1 PHE A   4      21.959  24.609  23.139  0.00  0.00    -0.004 A 
ENDBRANCH  36  37
ENDBRANCH  10  36
ENDBRANCH   6  10
ENDBRANCH   5   7
BRANCH   5  43
ATOM     43  CB  ASN A   5      18.686  21.794  29.672  0.00  0.00    +0.114 C 
BRANCH  43  44
ATOM     44  CG  ASN A   5      19.722  20.921  30.344  0.00  0.00    +0.222 C 
ATOM     45  ND2 ASN A   5      20.505  21.508  31.245  0.00  0.00    -0.329 N 
ATOM     46 HD21 ASN A   5      21.232  20.954  31.742  0.00  0.00    +0.145 HD
ATOM     47 HD22 ASN A   5      20.390  22.521  31.453  0.00  0.00    +0.145 HD
ATOM     48  OD1 ASN A   5      19.813  19.728  30.059  0.00  0.00    -0.275 OA
ENDBRANCH  43  44
ENDBRANCH   5  43
ENDBRANCH   1   5
BRANCH   3  49
ATOM     49  CA  VAL A   6      15.582  22.594  26.138  0.00  0.00    +0.149 C 
BRANCH  49  50
ATOM     50  C   VAL A   6      14.194  22.413  26.744  0.00  0.00    +0.241 C 
ATOM     51  N   ILE A   7      13.553  23.531  27.064  0.00  0.00    -0.297 N 
ATOM     52  H   ILE A   7      14.029  24.444  26.915  0.00  0.00    +0.150 HD
ATOM     53  O   VAL A   6      13.722  21.290  26.920  0.00  0.00    -0.273 OA
BRANCH  51  54
ATOM     54  CA  ILE A   7      12.206  23.522  27.616  0.00  0.00    +0.149 C 
BRANCH  54  55
ATOM     55  C   ILE A   7      11.275  23.730  26.426  0.00  0.00    +0.241 C 
ATOM     56  N   GLY A   8      10.602  22.660  26.013  0.00  0.00    -0.295 N 
ATOM     57  H   GLY A   8      10.719  21.756  26.514  0.00  0.00    +0.150 HD
ATOM     58  O   ILE A   7      11.182  24.837  25.889  0.00  0.00    -0.273 OA
BRANCH  56  59
ATOM     59  CA  GLY A   8       9.705  22.734  24.871  0.00  0.00    +0.176 C 
BRANCH  59  60
ATOM     60  C   GLY A   8       8.271  23.131  25.184  0.00  0.00    +0.243 C 
ATOM     61  O   GLY A   8       7.916  23.377  26.339  0.00  0.00    -0.273 OA
ATOM     62  N   ARG A   9       7.437  23.168  24.146  0.00  0.00    -0.297 N 
ATOM     63  H   ARG A   9       7.790  22.897  23.206  0.00  0.00    +0.150 HD
BRANCH  62  64
ATOM     64  CA  ARG A   9       6.042  23.578  24.287  0.00  0.00    +0.149 C 
BRANCH  64  65
ATOM     65  C   ARG A   9       5.231  22.779  25.301  0.00  0.00    +0.241 C 
ATOM     66  O   ARG A   9       4.362  23.338  25.965  0.00  0.00    -0.273 OA
ATOM     67  N   ASN A  10       5.509  21.484  25.434  0.00  0.00    -0.298 N 
ATOM     68  H   ASN A  10       6.264  21.053  24.863  0.00  0.00    +0.150 HD
BRANCH  67  69
ATOM     69  CA  ASN A  10       4.752  20.667  26.383  0.00  0.00    +0.146 C 
BRANCH  69  70
ATOM     70  C   ASN A  10       4.804  21.268  27.795  0.00  0.00    +0.227 C 
ATOM     71  O   ASN A  10       3.832  21.171  28.554  0.00  0.00    -0.286 OA
ENDBRANCH  69  70
BRANCH  69  72
ATOM     72  CB  ASN A  10       5.264  19.216  26.395  0.00  0.00    +0.112 C 
BRANCH  72  73
ATOM     73  CG  ASN A  10       6.612  19.073  27.068  0.00  0.00    +0.222 C 
ATOM     74  ND2 ASN A  10       6.678  18.216  28.086  0.00  0.00    -0.329 N 
ATOM     75 HD21 ASN A  10       7.578  18.071  28.586  0.00  0.00    +0.145 HD
ATOM     76 HD22 ASN A  10       5.829  17.692  28.380  0.00  0.00    +0.145 HD
ATOM     77  OD1 ASN A  10       7.585  19.718  26.679  0.00  0.00    -0.275 OA
ENDBRANCH  72  73
ENDBRANCH  69  72
ENDBRANCH  67  69
ENDBRANCH  64  65
BRANCH  64  78
ATOM     78  CB  ARG A   9       5.338  23.556  22.916  0.00  0.00    +0.033 C 
BRANCH  78  79
ATOM     79  CG  ARG A   9       5.914  24.561  21.915  0.00  0.00    +0.045 C 
BRANCH  79  80
ATOM     80  CD  ARG A   9       5.128  24.622  20.594  0.00  0.00    +0.174 C 
BRANCH  80  81
ATOM     81  NE  ARG A   9       5.139  23.344  19.883  0.00  0.00    -0.265 N 
ATOM     82  CZ  ARG A   9       4.142  22.461  19.907  0.00  0.00    +0.342 C 
ATOM     83  NH2 ARG A   9       3.037  22.713  20.602  0.00  0.00    -0.292 N 
ATOM     84 HH21 ARG A   9       2.947  23.604  21.131  0.00  0.00    +0.255 HD
ATOM     85 HH22 ARG A   9       2.262  22.019  20.617  0.00  0.00    +0.255 HD
ATOM     86  NH1 ARG A   9       4.257  21.317  19.243  0.00  0.00    -0.292 N 
ATOM     87 HH11 ARG A   9       3.480  20.626  19.260  0.00  0.00    +0.255 HD
ATOM     88 HH12 ARG A   9       5.124  21.112  18.706  0.00  0.00    +0.255 HD
ATOM     89  HE  ARG A   9       5.982  23.109  19.321  0.00  0.00    +0.259 HD
ENDBRANCH  80  81
ENDBRANCH  79  80
ENDBRANCH  78  79
ENDBRANCH  64  78
ENDBRANCH  62  64
ENDBRANCH  59  60
ENDBRANCH  56  59
ENDBRANCH  54  55
BRANCH  54  90
ATOM     90  CB  ILE A   7      11.998  24.669  28.631  0.00  0.00    +0.027 C 
ATOM     91  CG2 ILE A   7      10.600  24.583  29.234  0.00  0.00    +0.002 C 
BRANCH  90  92
ATOM     92  CG1 ILE A   7      13.056  24.585  29.740  0.00  0.00    +0.002 C 
ATOM     93  CD1 ILE A   7      13.091  23.246  30.479  0.00  0.00    +0.000 C 
ENDBRANCH  90  92
ENDBRANCH  54  90
ENDBRANCH  51  54
ENDBRANCH  49  50
BRANCH  49  94
ATOM     94  CB  VAL A   6      15.538  22.217  24.637  0.00  0.00    +0.027 C 
ATOM     95  CG2 VAL A   6      14.281  22.763  23.989  0.00  0.00    +0.002 C 
ATOM     96  CG1 VAL A   6      16.781  22.764  23.936  0.00  0.00    +0.002 C 
ENDBRANCH  49  94
ENDBRANCH   3  49
TORSDOF 33
REMARK  Name = ../refined-set-2016/1msn/1msn_pocket.pdb
REMARK  238 active torsions:
REMARK  status: ('A' for Active; 'I' for Inactive)
REMARK    1  A    between atoms: _1  and  _3
REMARK    2  A    between atoms: _3  and  _4
REMARK    3  A    between atoms: _3  and  _6
REMARK    4  A    between atoms: _6  and  _7
REMARK    5  A    between atoms: _7  and  _8
REMARK    6  A    between atoms: _8  and  _9
REMARK    7  A    between atoms: _18  and  _20
REMARK    8  A    between atoms: _20  and  _21
REMARK    9  A    between atoms: _20  and  _23
REMARK   10  A    between atoms: _23  and  _24
REMARK   11  A    between atoms: _27  and  _29
REMARK   12  A    between atoms: _29  and  _30
REMARK   13  A    between atoms: _29  and  _32
REMARK   14  A    between atoms: _32  and  _33
REMARK   15  A    between atoms: _36  and  _38
REMARK   16  A    between atoms: _38  and  _39
REMARK   17  A    between atoms: _38  and  _41
REMARK   18  A    between atoms: _41  and  _42
REMARK   19  A    between atoms: _45  and  _47
REMARK   20  A    between atoms: _47  and  _48
REMARK   21  A    between atoms: _47  and  _50
REMARK   22  A    between atoms: _50  and  _51
REMARK   23  A    between atoms: _54  and  _56
REMARK   24  A    between atoms: _56  and  _57
REMARK   25  A    between atoms: _59  and  _61
REMARK   26  A    between atoms: _61  and  _62
REMARK   27  A    between atoms: _65  and  _67
REMARK   28  A    between atoms: _67  and  _68
REMARK   29  A    between atoms: _67  and  _70
REMARK   30  A    between atoms: _70  and  _71
REMARK   31  A    between atoms: _74  and  _76
REMARK   32  A    between atoms: _76  and  _77
REMARK   33  A    between atoms: _76  and  _79
REMARK   34  A    between atoms: _79  and  _80
REMARK   35  A    between atoms: _83  and  _85
REMARK   36  A    between atoms: _85  and  _86
REMARK   37  A    between atoms: _85  and  _88
REMARK   38  A    between atoms: _88  and  _89
REMARK   39  A    between atoms: _92  and  _94
REMARK   40  A    between atoms: _94  and  _95
REMARK   41  A    between atoms: _94  and  _97
REMARK   42  A    between atoms: _100  and  _102
REMARK   43  A    between atoms: _102  and  _103
REMARK   44  A    between atoms: _102  and  _105
REMARK   45  A    between atoms: _105  and  _106
REMARK   46  A    between atoms: _109  and  _111
REMARK   47  A    between atoms: _111  and  _112
REMARK   48  A    between atoms: _111  and  _114
REMARK   49  A    between atoms: _114  and  _115
REMARK   50  A    between atoms: _115  and  _116
REMARK   51  A    between atoms: _116  and  _117
REMARK   52  A    between atoms: _117  and  _118
REMARK   53  A    between atoms: _122  and  _124
REMARK   54  A    between atoms: _124  and  _125
REMARK   55  A    between atoms: _124  and  _127
REMARK   56  A    between atoms: _127  and  _128
REMARK   57  A    between atoms: _128  and  _129
REMARK   58  A    between atoms: _131  and  _133
REMARK   59  A    between atoms: _133  and  _134
REMARK   60  A    between atoms: _133  and  _136
REMARK   61  A    between atoms: _136  and  _137
REMARK   62  A    between atoms: _140  and  _142
REMARK   63  A    between atoms: _142  and  _143
REMARK   64  A    between atoms: _145  and  _147
REMARK   65  A    between atoms: _147  and  _148
REMARK   66  A    between atoms: _150  and  _152
REMARK   67  A    between atoms: _152  and  _153
REMARK   68  A    between atoms: _152  and  _155
REMARK   69  A    between atoms: _155  and  _156
REMARK   70  A    between atoms: _159  and  _161
REMARK   71  A    between atoms: _161  and  _162
REMARK   72  A    between atoms: _164  and  _166
REMARK   73  A    between atoms: _166  and  _167
REMARK   74  A    between atoms: _169  and  _171
REMARK   75  A    between atoms: _171  and  _172
REMARK   76  A    between atoms: _171  and  _174
REMARK   77  A    between atoms: _174  and  _175
REMARK   78  A    between atoms: _181  and  _183
REMARK   79  A    between atoms: _183  and  _184
REMARK   80  A    between atoms: _183  and  _186
REMARK   81  A    between atoms: _186  and  _187
REMARK   82  A    between atoms: _190  and  _192
REMARK   83  A    between atoms: _192  and  _193
REMARK   84  A    between atoms: _192  and  _195
REMARK   85  A    between atoms: _198  and  _200
REMARK   86  A    between atoms: _200  and  _201
REMARK   87  A    between atoms: _200  and  _203
REMARK   88  A    between atoms: _203  and  _204
REMARK   89  A    between atoms: _208  and  _209
REMARK   90  A    between atoms: _214  and  _216
REMARK   91  A    between atoms: _216  and  _217
REMARK   92  A    between atoms: _216  and  _219
REMARK   93  A    between atoms: _219  and  _220
REMARK   94  A    between atoms: _224  and  _225
REMARK   95  A    between atoms: _230  and  _232
REMARK   96  A    between atoms: _232  and  _233
REMARK   97  A    between atoms: _232  and  _235
REMARK   98  A    between atoms: _235  and  _236
REMARK   99  A    between atoms: _242  and  _244
REMARK  100  A    between atoms: _244  and  _245
REMARK  101  A    between atoms: _244  and  _247
REMARK  102  A    between atoms: _247  and  _248
REMARK  103  A    between atoms: _253  and  _255
REMARK  104  A    between atoms: _255  and  _256
REMARK  105  A    between atoms: _255  and  _258
REMARK  106  A    between atoms: _261  and  _263
REMARK  107  A    between atoms: _263  and  _264
REMARK  108  A    between atoms: _263  and  _266
REMARK  109  A    between atoms: _266  and  _267
REMARK  110  A    between atoms: _270  and  _272
REMARK  111  A    between atoms: _272  and  _273
REMARK  112  A    between atoms: _275  and  _277
REMARK  113  A    between atoms: _277  and  _278
REMARK  114  A    between atoms: _277  and  _280
REMARK  115  A    between atoms: _280  and  _281
REMARK  116  A    between atoms: _281  and  _282
REMARK  117  A    between atoms: _282  and  _283
REMARK  118  A    between atoms: _292  and  _294
REMARK  119  A    between atoms: _294  and  _295
REMARK  120  A    between atoms: _294  and  _297
REMARK  121  A    between atoms: _297  and  _298
REMARK  122  A    between atoms: _303  and  _305
REMARK  123  A    between atoms: _305  and  _306
REMARK  124  A    between atoms: _305  and  _308
REMARK  125  A    between atoms: _308  and  _309
REMARK  126  A    between atoms: _309  and  _310
REMARK  127  A    between atoms: _310  and  _311
REMARK  128  A    between atoms: _320  and  _322
REMARK  129  A    between atoms: _322  and  _323
REMARK  130  A    between atoms: _322  and  _325
REMARK  131  A    between atoms: _325  and  _326
REMARK  132  A    between atoms: _329  and  _331
REMARK  133  A    between atoms: _331  and  _332
REMARK  134  A    between atoms: _331  and  _334
REMARK  135  A    between atoms: _334  and  _335
REMARK  136  A    between atoms: _338  and  _340
REMARK  137  A    between atoms: _340  and  _341
REMARK  138  A    between atoms: _340  and  _343
REMARK  139  A    between atoms: _343  and  _344
REMARK  140  A    between atoms: _347  and  _349
REMARK  141  A    between atoms: _349  and  _350
REMARK  142  A    between atoms: _349  and  _352
REMARK  143  A    between atoms: _352  and  _353
REMARK  144  A    between atoms: _356  and  _358
REMARK  145  A    between atoms: _358  and  _359
REMARK  146  A    between atoms: _358  and  _361
REMARK  147  A    between atoms: _361  and  _362
REMARK  148  A    between atoms: _365  and  _367
REMARK  149  A    between atoms: _367  and  _368
REMARK  150  A    between atoms: _370  and  _372
REMARK  151  A    between atoms: _372  and  _373
REMARK  152  A    between atoms: _376  and  _378
REMARK  153  A    between atoms: _378  and  _379
REMARK  154  A    between atoms: _378  and  _381
REMARK  155  A    between atoms: _381  and  _382
REMARK  156  A    between atoms: _385  and  _387
REMARK  157  A    between atoms: _387  and  _388
REMARK  158  A    between atoms: _387  and  _390
REMARK  159  A    between atoms: _390  and  _391
REMARK  160  A    between atoms: _394  and  _396
REMARK  161  A    between atoms: _396  and  _397
REMARK  162  A    between atoms: _396  and  _399
REMARK  163  A    between atoms: _399  and  _400
REMARK  164  A    between atoms: _403  and  _405
REMARK  165  A    between atoms: _405  and  _406
REMARK  166  A    between atoms: _405  and  _408
REMARK  167  A    between atoms: _411  and  _413
REMARK  168  A    between atoms: _413  and  _414
REMARK  169  A    between atoms: _413  and  _416
REMARK  170  A    between atoms: _416  and  _417
REMARK  171  A    between atoms: _417  and  _418
REMARK  172  A    between atoms: _418  and  _419
REMARK  173  A    between atoms: _419  and  _420
REMARK  174  A    between atoms: _424  and  _426
REMARK  175  A    between atoms: _426  and  _427
REMARK  176  A    between atoms: _426  and  _429
REMARK  177  A    between atoms: _429  and  _430
REMARK  178  A    between atoms: _430  and  _431
REMARK  179  A    between atoms: _433  and  _435
REMARK  180  A    between atoms: _435  and  _436
REMARK  181  A    between atoms: _435  and  _438
REMARK  182  A    between atoms: _438  and  _439
REMARK  183  A    between atoms: _442  and  _444
REMARK  184  A    between atoms: _444  and  _445
REMARK  185  A    between atoms: _447  and  _449
REMARK  186  A    between atoms: _449  and  _450
REMARK  187  A    between atoms: _452  and  _454
REMARK  188  A    between atoms: _454  and  _455
REMARK  189  A    between atoms: _454  and  _457
REMARK  190  A    between atoms: _457  and  _458
REMARK  191  A    between atoms: _461  and  _463
REMARK  192  A    between atoms: _463  and  _464
REMARK  193  A    between atoms: _466  and  _468
REMARK  194  A    between atoms: _468  and  _469
REMARK  195  A    between atoms: _471  and  _473
REMARK  196  A    between atoms: _473  and  _474
REMARK  197  A    between atoms: _473  and  _476
REMARK  198  A    between atoms: _476  and  _477
REMARK  199  A    between atoms: _480  and  _482
REMARK  200  A    between atoms: _482  and  _483
REMARK  201  A    between atoms: _482  and  _485
REMARK  202  A    between atoms: _488  and  _490
REMARK  203  A    between atoms: _490  and  _491
REMARK  204  A    between atoms: _490  and  _493
REMARK  205  A    between atoms: _493  and  _494
REMARK  206  A    between atoms: _498  and  _499
REMARK  207  A    between atoms: _504  and  _506
REMARK  208  A    between atoms: _506  and  _507
REMARK  209  A    between atoms: _506  and  _509
REMARK  210  A    between atoms: _509  and  _510
REMARK  211  A    between atoms: _514  and  _515
REMARK  212  A    between atoms: _520  and  _522
REMARK  213  A    between atoms: _522  and  _523
REMARK  214  A    between atoms: _522  and  _525
REMARK  215  A    between atoms: _525  and  _526
REMARK  216  A    between atoms: _532  and  _534
REMARK  217  A    between atoms: _534  and  _535
REMARK  218  A    between atoms: _534  and  _537
REMARK  219  A    between atoms: _537  and  _538
REMARK  220  A    between atoms: _543  and  _545
REMARK  221  A    between atoms: _545  and  _546
REMARK  222  A    between atoms: _545  and  _548
REMARK  223  A    between atoms: _551  and  _553
REMARK  224  A    between atoms: _553  and  _554
REMARK  225  A    between atoms: _553  and  _556
REMARK  226  A    between atoms: _556  and  _557
REMARK  227  A    between atoms: _560  and  _562
REMARK  228  A    between atoms: _562  and  _563
REMARK  229  A    between atoms: _565  and  _567
REMARK  230  A    between atoms: _567  and  _568
REMARK  231  A    between atoms: _567  and  _570
REMARK  232  A    between atoms: _570  and  _571
REMARK  233  A    between atoms: _571  and  _572
REMARK  234  A    between atoms: _572  and  _573
REMARK  235  A    between atoms: _582  and  _584
REMARK  236  A    between atoms: _584  and  _585
REMARK  237  A    between atoms: _584  and  _587
REMARK  238  A    between atoms: _587  and  _588
REMARK                            x       y       z     vdW  Elec       q    Type
REMARK                         _______ _______ _______ _____ _____    ______ ____
ROOT
ATOM      1  O   HOH     1      25.437  25.951  16.052  0.00  0.00    +0.000 OA
ENDROOT
TORSDOF 0
REMARK  Name = ../refined-set-2016/1msn/1msn_pocket.pdb
REMARK  238 active torsions:
REMARK  status: ('A' for Active; 'I' for Inactive)
REMARK    1  A    between atoms: _1  and  _3
REMARK    2  A    between atoms: _3  and  _4
REMARK    3  A    between atoms: _3  and  _6
REMARK    4  A    between atoms: _6  and  _7
REMARK    5  A    between atoms: _7  and  _8
REMARK    6  A    between atoms: _8  and  _9
REMARK    7  A    between atoms: _18  and  _20
REMARK    8  A    between atoms: _20  and  _21
REMARK    9  A    between atoms: _20  and  _23
REMARK   10  A    between atoms: _23  and  _24
REMARK   11  A    between atoms: _27  and  _29
REMARK   12  A    between atoms: _29  and  _30
REMARK   13  A    between atoms: _29  and  _32
REMARK   14  A    between atoms: _32  and  _33
REMARK   15  A    between atoms: _36  and  _38
REMARK   16  A    between atoms: _38  and  _39
REMARK   17  A    between atoms: _38  and  _41
REMARK   18  A    between atoms: _41  and  _42
REMARK   19  A    between atoms: _45  and  _47
REMARK   20  A    between atoms: _47  and  _48
REMARK   21  A    between atoms: _47  and  _50
REMARK   22  A    between atoms: _50  and  _51
REMARK   23  A    between atoms: _54  and  _56
REMARK   24  A    between atoms: _56  and  _57
REMARK   25  A    between atoms: _59  and  _61
REMARK   26  A    between atoms: _61  and  _62
REMARK   27  A    between atoms: _65  and  _67
REMARK   28  A    between atoms: _67  and  _68
REMARK   29  A    between atoms: _67  and  _70
REMARK   30  A    between atoms: _70  and  _71
REMARK   31  A    between atoms: _74  and  _76
REMARK   32  A    between atoms: _76  and  _77
REMARK   33  A    between atoms: _76  and  _79
REMARK   34  A    between atoms: _79  and  _80
REMARK   35  A    between atoms: _83  and  _85
REMARK   36  A    between atoms: _85  and  _86
REMARK   37  A    between atoms: _85  and  _88
REMARK   38  A    between atoms: _88  and  _89
REMARK   39  A    between atoms: _92  and  _94
REMARK   40  A    between atoms: _94  and  _95
REMARK   41  A    between atoms: _94  and  _97
REMARK   42  A    between atoms: _100  and  _102
REMARK   43  A    between atoms: _102  and  _103
REMARK   44  A    between atoms: _102  and  _105
REMARK   45  A    between atoms: _105  and  _106
REMARK   46  A    between atoms: _109  and  _111
REMARK   47  A    between atoms: _111  and  _112
REMARK   48  A    between atoms: _111  and  _114
REMARK   49  A    between atoms: _114  and  _115
REMARK   50  A    between atoms: _115  and  _116
REMARK   51  A    between atoms: _116  and  _117
REMARK   52  A    between atoms: _117  and  _118
REMARK   53  A    between atoms: _122  and  _124
REMARK   54  A    between atoms: _124  and  _125
REMARK   55  A    between atoms: _124  and  _127
REMARK   56  A    between atoms: _127  and  _128
REMARK   57  A    between atoms: _128  and  _129
REMARK   58  A    between atoms: _131  and  _133
REMARK   59  A    between atoms: _133  and  _134
REMARK   60  A    between atoms: _133  and  _136
REMARK   61  A    between atoms: _136  and  _137
REMARK   62  A    between atoms: _140  and  _142
REMARK   63  A    between atoms: _142  and  _143
REMARK   64  A    between atoms: _145  and  _147
REMARK   65  A    between atoms: _147  and  _148
REMARK   66  A    between atoms: _150  and  _152
REMARK   67  A    between atoms: _152  and  _153
REMARK   68  A    between atoms: _152  and  _155
REMARK   69  A    between atoms: _155  and  _156
REMARK   70  A    between atoms: _159  and  _161
REMARK   71  A    between atoms: _161  and  _162
REMARK   72  A    between atoms: _164  and  _166
REMARK   73  A    between atoms: _166  and  _167
REMARK   74  A    between atoms: _169  and  _171
REMARK   75  A    between atoms: _171  and  _172
REMARK   76  A    between atoms: _171  and  _174
REMARK   77  A    between atoms: _174  and  _175
REMARK   78  A    between atoms: _181  and  _183
REMARK   79  A    between atoms: _183  and  _184
REMARK   80  A    between atoms: _183  and  _186
REMARK   81  A    between atoms: _186  and  _187
REMARK   82  A    between atoms: _190  and  _192
REMARK   83  A    between atoms: _192  and  _193
REMARK   84  A    between atoms: _192  and  _195
REMARK   85  A    between atoms: _198  and  _200
REMARK   86  A    between atoms: _200  and  _201
REMARK   87  A    between atoms: _200  and  _203
REMARK   88  A    between atoms: _203  and  _204
REMARK   89  A    between atoms: _208  and  _209
REMARK   90  A    between atoms: _214  and  _216
REMARK   91  A    between atoms: _216  and  _217
REMARK   92  A    between atoms: _216  and  _219
REMARK   93  A    between atoms: _219  and  _220
REMARK   94  A    between atoms: _224  and  _225
REMARK   95  A    between atoms: _230  and  _232
REMARK   96  A    between atoms: _232  and  _233
REMARK   97  A    between atoms: _232  and  _235
REMARK   98  A    between atoms: _235  and  _236
REMARK   99  A    between atoms: _242  and  _244
REMARK  100  A    between atoms: _244  and  _245
REMARK  101  A    between atoms: _244  and  _247
REMARK  102  A    between atoms: _247  and  _248
REMARK  103  A    between atoms: _253  and  _255
REMARK  104  A    between atoms: _255  and  _256
REMARK  105  A    between atoms: _255  and  _258
REMARK  106  A    between atoms: _261  and  _263
REMARK  107  A    between atoms: _263  and  _264
REMARK  108  A    between atoms: _263  and  _266
REMARK  109  A    between atoms: _266  and  _267
REMARK  110  A    between atoms: _270  and  _272
REMARK  111  A    between atoms: _272  and  _273
REMARK  112  A    between atoms: _275  and  _277
REMARK  113  A    between atoms: _277  and  _278
REMARK  114  A    between atoms: _277  and  _280
REMARK  115  A    between atoms: _280  and  _281
REMARK  116  A    between atoms: _281  and  _282
REMARK  117  A    between atoms: _282  and  _283
REMARK  118  A    between atoms: _292  and  _294
REMARK  119  A    between atoms: _294  and  _295
REMARK  120  A    between atoms: _294  and  _297
REMARK  121  A    between atoms: _297  and  _298
REMARK  122  A    between atoms: _303  and  _305
REMARK  123  A    between atoms: _305  and  _306
REMARK  124  A    between atoms: _305  and  _308
REMARK  125  A    between atoms: _308  and  _309
REMARK  126  A    between atoms: _309  and  _310
REMARK  127  A    between atoms: _310  and  _311
REMARK  128  A    between atoms: _320  and  _322
REMARK  129  A    between atoms: _322  and  _323
REMARK  130  A    between atoms: _322  and  _325
REMARK  131  A    between atoms: _325  and  _326
REMARK  132  A    between atoms: _329  and  _331
REMARK  133  A    between atoms: _331  and  _332
REMARK  134  A    between atoms: _331  and  _334
REMARK  135  A    between atoms: _334  and  _335
REMARK  136  A    between atoms: _338  and  _340
REMARK  137  A    between atoms: _340  and  _341
REMARK  138  A    between atoms: _340  and  _343
REMARK  139  A    between atoms: _343  and  _344
REMARK  140  A    between atoms: _347  and  _349
REMARK  141  A    between atoms: _349  and  _350
REMARK  142  A    between atoms: _349  and  _352
REMARK  143  A    between atoms: _352  and  _353
REMARK  144  A    between atoms: _356  and  _358
REMARK  145  A    between atoms: _358  and  _359
REMARK  146  A    between atoms: _358  and  _361
REMARK  147  A    between atoms: _361  and  _362
REMARK  148  A    between atoms: _365  and  _367
REMARK  149  A    between atoms: _367  and  _368
REMARK  150  A    between atoms: _370  and  _372
REMARK  151  A    between atoms: _372  and  _373
REMARK  152  A    between atoms: _376  and  _378
REMARK  153  A    between atoms: _378  and  _379
REMARK  154  A    between atoms: _378  and  _381
REMARK  155  A    between atoms: _381  and  _382
REMARK  156  A    between atoms: _385  and  _387
REMARK  157  A    between atoms: _387  and  _388
REMARK  158  A    between atoms: _387  and  _390
REMARK  159  A    between atoms: _390  and  _391
REMARK  160  A    between atoms: _394  and  _396
REMARK  161  A    between atoms: _396  and  _397
REMARK  162  A    between atoms: _396  and  _399
REMARK  163  A    between atoms: _399  and  _400
REMARK  164  A    between atoms: _403  and  _405
REMARK  165  A    between atoms: _405  and  _406
REMARK  166  A    between atoms: _405  and  _408
REMARK  167  A    between atoms: _411  and  _413
REMARK  168  A    between atoms: _413  and  _414
REMARK  169  A    between atoms: _413  and  _416
REMARK  170  A    between atoms: _416  and  _417
REMARK  171  A    between atoms: _417  and  _418
REMARK  172  A    between atoms: _418  and  _419
REMARK  173  A    between atoms: _419  and  _420
REMARK  174  A    between atoms: _424  and  _426
REMARK  175  A    between atoms: _426  and  _427
REMARK  176  A    between atoms: _426  and  _429
REMARK  177  A    between atoms: _429  and  _430
REMARK  178  A    between atoms: _430  and  _431
REMARK  179  A    between atoms: _433  and  _435
REMARK  180  A    between atoms: _435  and  _436
REMARK  181  A    between atoms: _435  and  _438
REMARK  182  A    between atoms: _438  and  _439
REMARK  183  A    between atoms: _442  and  _444
REMARK  184  A    between atoms: _444  and  _445
REMARK  185  A    between atoms: _447  and  _449
REMARK  186  A    between atoms: _449  and  _450
REMARK  187  A    between atoms: _452  and  _454
REMARK  188  A    between atoms: _454  and  _455
REMARK  189  A    between atoms: _454  and  _457
REMARK  190  A    between atoms: _457  and  _458
REMARK  191  A    between atoms: _461  and  _463
REMARK  192  A    between atoms: _463  and  _464
REMARK  193  A    between atoms: _466  and  _468
REMARK  194  A    between atoms: _468  and  _469
REMARK  195  A    between atoms: _471  and  _473
REMARK  196  A    between atoms: _473  and  _474
REMARK  197  A    between atoms: _473  and  _476
REMARK  198  A    between atoms: _476  and  _477
REMARK  199  A    between atoms: _480  and  _482
REMARK  200  A    between atoms: _482  and  _483
REMARK  201  A    between atoms: _482  and  _485
REMARK  202  A    between atoms: _488  and  _490
REMARK  203  A    between atoms: _490  and  _491
REMARK  204  A    between atoms: _490  and  _493
REMARK  205  A    between atoms: _493  and  _494
REMARK  206  A    between atoms: _498  and  _499
REMARK  207  A    between atoms: _504  and  _506
REMARK  208  A    between atoms: _506  and  _507
REMARK  209  A    between atoms: _506  and  _509
REMARK  210  A    between atoms: _509  and  _510
REMARK  211  A    between atoms: _514  and  _515
REMARK  212  A    between atoms: _520  and  _522
REMARK  213  A    between atoms: _522  and  _523
REMARK  214  A    between atoms: _522  and  _525
REMARK  215  A    between atoms: _525  and  _526
REMARK  216  A    between atoms: _532  and  _534
REMARK  217  A    between atoms: _534  and  _535
REMARK  218  A    between atoms: _534  and  _537
REMARK  219  A    between atoms: _537  and  _538
REMARK  220  A    between atoms: _543  and  _545
REMARK  221  A    between atoms: _545  and  _546
REMARK  222  A    between atoms: _545  and  _548
REMARK  223  A    between atoms: _551  and  _553
REMARK  224  A    between atoms: _553  and  _554
REMARK  225  A    between atoms: _553  and  _556
REMARK  226  A    between atoms: _556  and  _557
REMARK  227  A    between atoms: _560  and  _562
REMARK  228  A    between atoms: _562  and  _563
REMARK  229  A    between atoms: _565  and  _567
REMARK  230  A    between atoms: _567  and  _568
REMARK  231  A    between atoms: _567  and  _570
REMARK  232  A    between atoms: _570  and  _571
REMARK  233  A    between atoms: _571  and  _572
REMARK  234  A    between atoms: _572  and  _573
REMARK  235  A    between atoms: _582  and  _584
REMARK  236  A    between atoms: _584  and  _585
REMARK  237  A    between atoms: _584  and  _587
REMARK  238  A    between atoms: _587  and  _588
REMARK                            x       y       z     vdW  Elec       q    Type
REMARK                         _______ _______ _______ _____ _____    ______ ____
ROOT
ATOM      1  O   HOH     1      18.258  30.913  21.332  0.00  0.00    +0.000 OA
ENDROOT
TORSDOF 0
REMARK  Name = ../refined-set-2016/1msn/1msn_pocket.pdb
REMARK  238 active torsions:
REMARK  status: ('A' for Active; 'I' for Inactive)
REMARK    1  A    between atoms: _1  and  _3
REMARK    2  A    between atoms: _3  and  _4
REMARK    3  A    between atoms: _3  and  _6
REMARK    4  A    between atoms: _6  and  _7
REMARK    5  A    between atoms: _7  and  _8
REMARK    6  A    between atoms: _8  and  _9
REMARK    7  A    between atoms: _18  and  _20
REMARK    8  A    between atoms: _20  and  _21
REMARK    9  A    between atoms: _20  and  _23
REMARK   10  A    between atoms: _23  and  _24
REMARK   11  A    between atoms: _27  and  _29
REMARK   12  A    between atoms: _29  and  _30
REMARK   13  A    between atoms: _29  and  _32
REMARK   14  A    between atoms: _32  and  _33
REMARK   15  A    between atoms: _36  and  _38
REMARK   16  A    between atoms: _38  and  _39
REMARK   17  A    between atoms: _38  and  _41
REMARK   18  A    between atoms: _41  and  _42
REMARK   19  A    between atoms: _45  and  _47
REMARK   20  A    between atoms: _47  and  _48
REMARK   21  A    between atoms: _47  and  _50
REMARK   22  A    between atoms: _50  and  _51
REMARK   23  A    between atoms: _54  and  _56
REMARK   24  A    between atoms: _56  and  _57
REMARK   25  A    between atoms: _59  and  _61
REMARK   26  A    between atoms: _61  and  _62
REMARK   27  A    between atoms: _65  and  _67
REMARK   28  A    between atoms: _67  and  _68
REMARK   29  A    between atoms: _67  and  _70
REMARK   30  A    between atoms: _70  and  _71
REMARK   31  A    between atoms: _74  and  _76
REMARK   32  A    between atoms: _76  and  _77
REMARK   33  A    between atoms: _76  and  _79
REMARK   34  A    between atoms: _79  and  _80
REMARK   35  A    between atoms: _83  and  _85
REMARK   36  A    between atoms: _85  and  _86
REMARK   37  A    between atoms: _85  and  _88
REMARK   38  A    between atoms: _88  and  _89
REMARK   39  A    between atoms: _92  and  _94
REMARK   40  A    between atoms: _94  and  _95
REMARK   41  A    between atoms: _94  and  _97
REMARK   42  A    between atoms: _100  and  _102
REMARK   43  A    between atoms: _102  and  _103
REMARK   44  A    between atoms: _102  and  _105
REMARK   45  A    between atoms: _105  and  _106
REMARK   46  A    between atoms: _109  and  _111
REMARK   47  A    between atoms: _111  and  _112
REMARK   48  A    between atoms: _111  and  _114
REMARK   49  A    between atoms: _114  and  _115
REMARK   50  A    between atoms: _115  and  _116
REMARK   51  A    between atoms: _116  and  _117
REMARK   52  A    between atoms: _117  and  _118
REMARK   53  A    between atoms: _122  and  _124
REMARK   54  A    between atoms: _124  and  _125
REMARK   55  A    between atoms: _124  and  _127
REMARK   56  A    between atoms: _127  and  _128
REMARK   57  A    between atoms: _128  and  _129
REMARK   58  A    between atoms: _131  and  _133
REMARK   59  A    between atoms: _133  and  _134
REMARK   60  A    between atoms: _133  and  _136
REMARK   61  A    between atoms: _136  and  _137
REMARK   62  A    between atoms: _140  and  _142
REMARK   63  A    between atoms: _142  and  _143
REMARK   64  A    between atoms: _145  and  _147
REMARK   65  A    between atoms: _147  and  _148
REMARK   66  A    between atoms: _150  and  _152
REMARK   67  A    between atoms: _152  and  _153
REMARK   68  A    between atoms: _152  and  _155
REMARK   69  A    between atoms: _155  and  _156
REMARK   70  A    between atoms: _159  and  _161
REMARK   71  A    between atoms: _161  and  _162
REMARK   72  A    between atoms: _164  and  _166
REMARK   73  A    between atoms: _166  and  _167
REMARK   74  A    between atoms: _169  and  _171
REMARK   75  A    between atoms: _171  and  _172
REMARK   76  A    between atoms: _171  and  _174
REMARK   77  A    between atoms: _174  and  _175
REMARK   78  A    between atoms: _181  and  _183
REMARK   79  A    between atoms: _183  and  _184
REMARK   80  A    between atoms: _183  and  _186
REMARK   81  A    between atoms: _186  and  _187
REMARK   82  A    between atoms: _190  and  _192
REMARK   83  A    between atoms: _192  and  _193
REMARK   84  A    between atoms: _192  and  _195
REMARK   85  A    between atoms: _198  and  _200
REMARK   86  A    between atoms: _200  and  _201
REMARK   87  A    between atoms: _200  and  _203
REMARK   88  A    between atoms: _203  and  _204
REMARK   89  A    between atoms: _208  and  _209
REMARK   90  A    between atoms: _214  and  _216
REMARK   91  A    between atoms: _216  and  _217
REMARK   92  A    between atoms: _216  and  _219
REMARK   93  A    between atoms: _219  and  _220
REMARK   94  A    between atoms: _224  and  _225
REMARK   95  A    between atoms: _230  and  _232
REMARK   96  A    between atoms: _232  and  _233
REMARK   97  A    between atoms: _232  and  _235
REMARK   98  A    between atoms: _235  and  _236
REMARK   99  A    between atoms: _242  and  _244
REMARK  100  A    between atoms: _244  and  _245
REMARK  101  A    between atoms: _244  and  _247
REMARK  102  A    between atoms: _247  and  _248
REMARK  103  A    between atoms: _253  and  _255
REMARK  104  A    between atoms: _255  and  _256
REMARK  105  A    between atoms: _255  and  _258
REMARK  106  A    between atoms: _261  and  _263
REMARK  107  A    between atoms: _263  and  _264
REMARK  108  A    between atoms: _263  and  _266
REMARK  109  A    between atoms: _266  and  _267
REMARK  110  A    between atoms: _270  and  _272
REMARK  111  A    between atoms: _272  and  _273
REMARK  112  A    between atoms: _275  and  _277
REMARK  113  A    between atoms: _277  and  _278
REMARK  114  A    between atoms: _277  and  _280
REMARK  115  A    between atoms: _280  and  _281
REMARK  116  A    between atoms: _281  and  _282
REMARK  117  A    between atoms: _282  and  _283
REMARK  118  A    between atoms: _292  and  _294
REMARK  119  A    between atoms: _294  and  _295
REMARK  120  A    between atoms: _294  and  _297
REMARK  121  A    between atoms: _297  and  _298
REMARK  122  A    between atoms: _303  and  _305
REMARK  123  A    between atoms: _305  and  _306
REMARK  124  A    between atoms: _305  and  _308
REMARK  125  A    between atoms: _308  and  _309
REMARK  126  A    between atoms: _309  and  _310
REMARK  127  A    between atoms: _310  and  _311
REMARK  128  A    between atoms: _320  and  _322
REMARK  129  A    between atoms: _322  and  _323
REMARK  130  A    between atoms: _322  and  _325
REMARK  131  A    between atoms: _325  and  _326
REMARK  132  A    between atoms: _329  and  _331
REMARK  133  A    between atoms: _331  and  _332
REMARK  134  A    between atoms: _331  and  _334
REMARK  135  A    between atoms: _334  and  _335
REMARK  136  A    between atoms: _338  and  _340
REMARK  137  A    between atoms: _340  and  _341
REMARK  138  A    between atoms: _340  and  _343
REMARK  139  A    between atoms: _343  and  _344
REMARK  140  A    between atoms: _347  and  _349
REMARK  141  A    between atoms: _349  and  _350
REMARK  142  A    between atoms: _349  and  _352
REMARK  143  A    between atoms: _352  and  _353
REMARK  144  A    between atoms: _356  and  _358
REMARK  145  A    between atoms: _358  and  _359
REMARK  146  A    between atoms: _358  and  _361
REMARK  147  A    between atoms: _361  and  _362
REMARK  148  A    between atoms: _365  and  _367
REMARK  149  A    between atoms: _367  and  _368
REMARK  150  A    between atoms: _370  and  _372
REMARK  151  A    between atoms: _372  and  _373
REMARK  152  A    between atoms: _376  and  _378
REMARK  153  A    between atoms: _378  and  _379
REMARK  154  A    between atoms: _378  and  _381
REMARK  155  A    between atoms: _381  and  _382
REMARK  156  A    between atoms: _385  and  _387
REMARK  157  A    between atoms: _387  and  _388
REMARK  158  A    between atoms: _387  and  _390
REMARK  159  A    between atoms: _390  and  _391
REMARK  160  A    between atoms: _394  and  _396
REMARK  161  A    between atoms: _396  and  _397
REMARK  162  A    between atoms: _396  and  _399
REMARK  163  A    between atoms: _399  and  _400
REMARK  164  A    between atoms: _403  and  _405
REMARK  165  A    between atoms: _405  and  _406
REMARK  166  A    between atoms: _405  and  _408
REMARK  167  A    between atoms: _411  and  _413
REMARK  168  A    between atoms: _413  and  _414
REMARK  169  A    between atoms: _413  and  _416
REMARK  170  A    between atoms: _416  and  _417
REMARK  171  A    between atoms: _417  and  _418
REMARK  172  A    between atoms: _418  and  _419
REMARK  173  A    between atoms: _419  and  _420
REMARK  174  A    between atoms: _424  and  _426
REMARK  175  A    between atoms: _426  and  _427
REMARK  176  A    between atoms: _426  and  _429
REMARK  177  A    between atoms: _429  and  _430
REMARK  178  A    between atoms: _430  and  _431
REMARK  179  A    between atoms: _433  and  _435
REMARK  180  A    between atoms: _435  and  _436
REMARK  181  A    between atoms: _435  and  _438
REMARK  182  A    between atoms: _438  and  _439
REMARK  183  A    between atoms: _442  and  _444
REMARK  184  A    between atoms: _444  and  _445
REMARK  185  A    between atoms: _447  and  _449
REMARK  186  A    between atoms: _449  and  _450
REMARK  187  A    between atoms: _452  and  _454
REMARK  188  A    between atoms: _454  and  _455
REMARK  189  A    between atoms: _454  and  _457
REMARK  190  A    between atoms: _457  and  _458
REMARK  191  A    between atoms: _461  and  _463
REMARK  192  A    between atoms: _463  and  _464
REMARK  193  A    between atoms: _466  and  _468
REMARK  194  A    between atoms: _468  and  _469
REMARK  195  A    between atoms: _471  and  _473
REMARK  196  A    between atoms: _473  and  _474
REMARK  197  A    between atoms: _473  and  _476
REMARK  198  A    between atoms: _476  and  _477
REMARK  199  A    between atoms: _480  and  _482
REMARK  200  A    between atoms: _482  and  _483
REMARK  201  A    between atoms: _482  and  _485
REMARK  202  A    between atoms: _488  and  _490
REMARK  203  A    between atoms: _490  and  _491
REMARK  204  A    between atoms: _490  and  _493
REMARK  205  A    between atoms: _493  and  _494
REMARK  206  A    between atoms: _498  and  _499
REMARK  207  A    between atoms: _504  and  _506
REMARK  208  A    between atoms: _506  and  _507
REMARK  209  A    between atoms: _506  and  _509
REMARK  210  A    between atoms: _509  and  _510
REMARK  211  A    between atoms: _514  and  _515
REMARK  212  A    between atoms: _520  and  _522
REMARK  213  A    between atoms: _522  and  _523
REMARK  214  A    between atoms: _522  and  _525
REMARK  215  A    between atoms: _525  and  _526
REMARK  216  A    between atoms: _532  and  _534
REMARK  217  A    between atoms: _534  and  _535
REMARK  218  A    between atoms: _534  and  _537
REMARK  219  A    between atoms: _537  and  _538
REMARK  220  A    between atoms: _543  and  _545
REMARK  221  A    between atoms: _545  and  _546
REMARK  222  A    between atoms: _545  and  _548
REMARK  223  A    between atoms: _551  and  _553
REMARK  224  A    between atoms: _553  and  _554
REMARK  225  A    between atoms: _553  and  _556
REMARK  226  A    between atoms: _556  and  _557
REMARK  227  A    between atoms: _560  and  _562
REMARK  228  A    between atoms: _562  and  _563
REMARK  229  A    between atoms: _565  and  _567
REMARK  230  A    between atoms: _567  and  _568
REMARK  231  A    between atoms: _567  and  _570
REMARK  232  A    between atoms: _570  and  _571
REMARK  233  A    between atoms: _571  and  _572
REMARK  234  A    between atoms: _572  and  _573
REMARK  235  A    between atoms: _582  and  _584
REMARK  236  A    between atoms: _584  and  _585
REMARK  237  A    between atoms: _584  and  _587
REMARK  238  A    between atoms: _587  and  _588
REMARK                            x       y       z     vdW  Elec       q    Type
REMARK                         _______ _______ _______ _____ _____    ______ ____
ROOT
ATOM      1  O   HOH     1      20.246  27.728  18.312  0.00  0.00    +0.000 OA
ENDROOT
TORSDOF 0
REMARK  Name = ../refined-set-2016/1msn/1msn_pocket.pdb
REMARK  238 active torsions:
REMARK  status: ('A' for Active; 'I' for Inactive)
REMARK    1  A    between atoms: _1  and  _3
REMARK    2  A    between atoms: _3  and  _4
REMARK    3  A    between atoms: _3  and  _6
REMARK    4  A    between atoms: _6  and  _7
REMARK    5  A    between atoms: _7  and  _8
REMARK    6  A    between atoms: _8  and  _9
REMARK    7  A    between atoms: _18  and  _20
REMARK    8  A    between atoms: _20  and  _21
REMARK    9  A    between atoms: _20  and  _23
REMARK   10  A    between atoms: _23  and  _24
REMARK   11  A    between atoms: _27  and  _29
REMARK   12  A    between atoms: _29  and  _30
REMARK   13  A    between atoms: _29  and  _32
REMARK   14  A    between atoms: _32  and  _33
REMARK   15  A    between atoms: _36  and  _38
REMARK   16  A    between atoms: _38  and  _39
REMARK   17  A    between atoms: _38  and  _41
REMARK   18  A    between atoms: _41  and  _42
REMARK   19  A    between atoms: _45  and  _47
REMARK   20  A    between atoms: _47  and  _48
REMARK   21  A    between atoms: _47  and  _50
REMARK   22  A    between atoms: _50  and  _51
REMARK   23  A    between atoms: _54  and  _56
REMARK   24  A    between atoms: _56  and  _57
REMARK   25  A    between atoms: _59  and  _61
REMARK   26  A    between atoms: _61  and  _62
REMARK   27  A    between atoms: _65  and  _67
REMARK   28  A    between atoms: _67  and  _68
REMARK   29  A    between atoms: _67  and  _70
REMARK   30  A    between atoms: _70  and  _71
REMARK   31  A    between atoms: _74  and  _76
REMARK   32  A    between atoms: _76  and  _77
REMARK   33  A    between atoms: _76  and  _79
REMARK   34  A    between atoms: _79  and  _80
REMARK   35  A    between atoms: _83  and  _85
REMARK   36  A    between atoms: _85  and  _86
REMARK   37  A    between atoms: _85  and  _88
REMARK   38  A    between atoms: _88  and  _89
REMARK   39  A    between atoms: _92  and  _94
REMARK   40  A    between atoms: _94  and  _95
REMARK   41  A    between atoms: _94  and  _97
REMARK   42  A    between atoms: _100  and  _102
REMARK   43  A    between atoms: _102  and  _103
REMARK   44  A    between atoms: _102  and  _105
REMARK   45  A    between atoms: _105  and  _106
REMARK   46  A    between atoms: _109  and  _111
REMARK   47  A    between atoms: _111  and  _112
REMARK   48  A    between atoms: _111  and  _114
REMARK   49  A    between atoms: _114  and  _115
REMARK   50  A    between atoms: _115  and  _116
REMARK   51  A    between atoms: _116  and  _117
REMARK   52  A    between atoms: _117  and  _118
REMARK   53  A    between atoms: _122  and  _124
REMARK   54  A    between atoms: _124  and  _125
REMARK   55  A    between atoms: _124  and  _127
REMARK   56  A    between atoms: _127  and  _128
REMARK   57  A    between atoms: _128  and  _129
REMARK   58  A    between atoms: _131  and  _133
REMARK   59  A    between atoms: _133  and  _134
REMARK   60  A    between atoms: _133  and  _136
REMARK   61  A    between atoms: _136  and  _137
REMARK   62  A    between atoms: _140  and  _142
REMARK   63  A    between atoms: _142  and  _143
REMARK   64  A    between atoms: _145  and  _147
REMARK   65  A    between atoms: _147  and  _148
REMARK   66  A    between atoms: _150  and  _152
REMARK   67  A    between atoms: _152  and  _153
REMARK   68  A    between atoms: _152  and  _155
REMARK   69  A    between atoms: _155  and  _156
REMARK   70  A    between atoms: _159  and  _161
REMARK   71  A    between atoms: _161  and  _162
REMARK   72  A    between atoms: _164  and  _166
REMARK   73  A    between atoms: _166  and  _167
REMARK   74  A    between atoms: _169  and  _171
REMARK   75  A    between atoms: _171  and  _172
REMARK   76  A    between atoms: _171  and  _174
REMARK   77  A    between atoms: _174  and  _175
REMARK   78  A    between atoms: _181  and  _183
REMARK   79  A    between atoms: _183  and  _184
REMARK   80  A    between atoms: _183  and  _186
REMARK   81  A    between atoms: _186  and  _187
REMARK   82  A    between atoms: _190  and  _192
REMARK   83  A    between atoms: _192  and  _193
REMARK   84  A    between atoms: _192  and  _195
REMARK   85  A    between atoms: _198  and  _200
REMARK   86  A    between atoms: _200  and  _201
REMARK   87  A    between atoms: _200  and  _203
REMARK   88  A    between atoms: _203  and  _204
REMARK   89  A    between atoms: _208  and  _209
REMARK   90  A    between atoms: _214  and  _216
REMARK   91  A    between atoms: _216  and  _217
REMARK   92  A    between atoms: _216  and  _219
REMARK   93  A    between atoms: _219  and  _220
REMARK   94  A    between atoms: _224  and  _225
REMARK   95  A    between atoms: _230  and  _232
REMARK   96  A    between atoms: _232  and  _233
REMARK   97  A    between atoms: _232  and  _235
REMARK   98  A    between atoms: _235  and  _236
REMARK   99  A    between atoms: _242  and  _244
REMARK  100  A    between atoms: _244  and  _245
REMARK  101  A    between atoms: _244  and  _247
REMARK  102  A    between atoms: _247  and  _248
REMARK  103  A    between atoms: _253  and  _255
REMARK  104  A    between atoms: _255  and  _256
REMARK  105  A    between atoms: _255  and  _258
REMARK  106  A    between atoms: _261  and  _263
REMARK  107  A    between atoms: _263  and  _264
REMARK  108  A    between atoms: _263  and  _266
REMARK  109  A    between atoms: _266  and  _267
REMARK  110  A    between atoms: _270  and  _272
REMARK  111  A    between atoms: _272  and  _273
REMARK  112  A    between atoms: _275  and  _277
REMARK  113  A    between atoms: _277  and  _278
REMARK  114  A    between atoms: _277  and  _280
REMARK  115  A    between atoms: _280  and  _281
REMARK  116  A    between atoms: _281  and  _282
REMARK  117  A    between atoms: _282  and  _283
REMARK  118  A    between atoms: _292  and  _294
REMARK  119  A    between atoms: _294  and  _295
REMARK  120  A    between atoms: _294  and  _297
REMARK  121  A    between atoms: _297  and  _298
REMARK  122  A    between atoms: _303  and  _305
REMARK  123  A    between atoms: _305  and  _306
REMARK  124  A    between atoms: _305  and  _308
REMARK  125  A    between atoms: _308  and  _309
REMARK  126  A    between atoms: _309  and  _310
REMARK  127  A    between atoms: _310  and  _311
REMARK  128  A    between atoms: _320  and  _322
REMARK  129  A    between atoms: _322  and  _323
REMARK  130  A    between atoms: _322  and  _325
REMARK  131  A    between atoms: _325  and  _326
REMARK  132  A    between atoms: _329  and  _331
REMARK  133  A    between atoms: _331  and  _332
REMARK  134  A    between atoms: _331  and  _334
REMARK  135  A    between atoms: _334  and  _335
REMARK  136  A    between atoms: _338  and  _340
REMARK  137  A    between atoms: _340  and  _341
REMARK  138  A    between atoms: _340  and  _343
REMARK  139  A    between atoms: _343  and  _344
REMARK  140  A    between atoms: _347  and  _349
REMARK  141  A    between atoms: _349  and  _350
REMARK  142  A    between atoms: _349  and  _352
REMARK  143  A    between atoms: _352  and  _353
REMARK  144  A    between atoms: _356  and  _358
REMARK  145  A    between atoms: _358  and  _359
REMARK  146  A    between atoms: _358  and  _361
REMARK  147  A    between atoms: _361  and  _362
REMARK  148  A    between atoms: _365  and  _367
REMARK  149  A    between atoms: _367  and  _368
REMARK  150  A    between atoms: _370  and  _372
REMARK  151  A    between atoms: _372  and  _373
REMARK  152  A    between atoms: _376  and  _378
REMARK  153  A    between atoms: _378  and  _379
REMARK  154  A    between atoms: _378  and  _381
REMARK  155  A    between atoms: _381  and  _382
REMARK  156  A    between atoms: _385  and  _387
REMARK  157  A    between atoms: _387  and  _388
REMARK  158  A    between atoms: _387  and  _390
REMARK  159  A    between atoms: _390  and  _391
REMARK  160  A    between atoms: _394  and  _396
REMARK  161  A    between atoms: _396  and  _397
REMARK  162  A    between atoms: _396  and  _399
REMARK  163  A    between atoms: _399  and  _400
REMARK  164  A    between atoms: _403  and  _405
REMARK  165  A    between atoms: _405  and  _406
REMARK  166  A    between atoms: _405  and  _408
REMARK  167  A    between atoms: _411  and  _413
REMARK  168  A    between atoms: _413  and  _414
REMARK  169  A    between atoms: _413  and  _416
REMARK  170  A    between atoms: _416  and  _417
REMARK  171  A    between atoms: _417  and  _418
REMARK  172  A    between atoms: _418  and  _419
REMARK  173  A    between atoms: _419  and  _420
REMARK  174  A    between atoms: _424  and  _426
REMARK  175  A    between atoms: _426  and  _427
REMARK  176  A    between atoms: _426  and  _429
REMARK  177  A    between atoms: _429  and  _430
REMARK  178  A    between atoms: _430  and  _431
REMARK  179  A    between atoms: _433  and  _435
REMARK  180  A    between atoms: _435  and  _436
REMARK  181  A    between atoms: _435  and  _438
REMARK  182  A    between atoms: _438  and  _439
REMARK  183  A    between atoms: _442  and  _444
REMARK  184  A    between atoms: _444  and  _445
REMARK  185  A    between atoms: _447  and  _449
REMARK  186  A    between atoms: _449  and  _450
REMARK  187  A    between atoms: _452  and  _454
REMARK  188  A    between atoms: _454  and  _455
REMARK  189  A    between atoms: _454  and  _457
REMARK  190  A    between atoms: _457  and  _458
REMARK  191  A    between atoms: _461  and  _463
REMARK  192  A    between atoms: _463  and  _464
REMARK  193  A    between atoms: _466  and  _468
REMARK  194  A    between atoms: _468  and  _469
REMARK  195  A    between atoms: _471  and  _473
REMARK  196  A    between atoms: _473  and  _474
REMARK  197  A    between atoms: _473  and  _476
REMARK  198  A    between atoms: _476  and  _477
REMARK  199  A    between atoms: _480  and  _482
REMARK  200  A    between atoms: _482  and  _483
REMARK  201  A    between atoms: _482  and  _485
REMARK  202  A    between atoms: _488  and  _490
REMARK  203  A    between atoms: _490  and  _491
REMARK  204  A    between atoms: _490  and  _493
REMARK  205  A    between atoms: _493  and  _494
REMARK  206  A    between atoms: _498  and  _499
REMARK  207  A    between atoms: _504  and  _506
REMARK  208  A    between atoms: _506  and  _507
REMARK  209  A    between atoms: _506  and  _509
REMARK  210  A    between atoms: _509  and  _510
REMARK  211  A    between atoms: _514  and  _515
REMARK  212  A    between atoms: _520  and  _522
REMARK  213  A    between atoms: _522  and  _523
REMARK  214  A    between atoms: _522  and  _525
REMARK  215  A    between atoms: _525  and  _526
REMARK  216  A    between atoms: _532  and  _534
REMARK  217  A    between atoms: _534  and  _535
REMARK  218  A    between atoms: _534  and  _537
REMARK  219  A    between atoms: _537  and  _538
REMARK  220  A    between atoms: _543  and  _545
REMARK  221  A    between atoms: _545  and  _546
REMARK  222  A    between atoms: _545  and  _548
REMARK  223  A    between atoms: _551  and  _553
REMARK  224  A    between atoms: _553  and  _554
REMARK  225  A    between atoms: _553  and  _556
REMARK  226  A    between atoms: _556  and  _557
REMARK  227  A    between atoms: _560  and  _562
REMARK  228  A    between atoms: _562  and  _563
REMARK  229  A    between atoms: _565  and  _567
REMARK  230  A    between atoms: _567  and  _568
REMARK  231  A    between atoms: _567  and  _570
REMARK  232  A    between atoms: _570  and  _571
REMARK  233  A    between atoms: _571  and  _572
REMARK  234  A    between atoms: _572  and  _573
REMARK  235  A    between atoms: _582  and  _584
REMARK  236  A    between atoms: _584  and  _585
REMARK  237  A    between atoms: _584  and  _587
REMARK  238  A    between atoms: _587  and  _588
REMARK                            x       y       z     vdW  Elec       q    Type
REMARK                         _______ _______ _______ _____ _____    ______ ____
ROOT
ATOM      1  O   HOH     1      20.448  29.193  21.020  0.00  0.00    +0.000 OA
ENDROOT
TORSDOF 0
REMARK  Name = ../refined-set-2016/1msn/1msn_pocket.pdb
REMARK  238 active torsions:
REMARK  status: ('A' for Active; 'I' for Inactive)
REMARK    1  A    between atoms: _1  and  _3
REMARK    2  A    between atoms: _3  and  _4
REMARK    3  A    between atoms: _3  and  _6
REMARK    4  A    between atoms: _6  and  _7
REMARK    5  A    between atoms: _7  and  _8
REMARK    6  A    between atoms: _8  and  _9
REMARK    7  A    between atoms: _18  and  _20
REMARK    8  A    between atoms: _20  and  _21
REMARK    9  A    between atoms: _20  and  _23
REMARK   10  A    between atoms: _23  and  _24
REMARK   11  A    between atoms: _27  and  _29
REMARK   12  A    between atoms: _29  and  _30
REMARK   13  A    between atoms: _29  and  _32
REMARK   14  A    between atoms: _32  and  _33
REMARK   15  A    between atoms: _36  and  _38
REMARK   16  A    between atoms: _38  and  _39
REMARK   17  A    between atoms: _38  and  _41
REMARK   18  A    between atoms: _41  and  _42
REMARK   19  A    between atoms: _45  and  _47
REMARK   20  A    between atoms: _47  and  _48
REMARK   21  A    between atoms: _47  and  _50
REMARK   22  A    between atoms: _50  and  _51
REMARK   23  A    between atoms: _54  and  _56
REMARK   24  A    between atoms: _56  and  _57
REMARK   25  A    between atoms: _59  and  _61
REMARK   26  A    between atoms: _61  and  _62
REMARK   27  A    between atoms: _65  and  _67
REMARK   28  A    between atoms: _67  and  _68
REMARK   29  A    between atoms: _67  and  _70
REMARK   30  A    between atoms: _70  and  _71
REMARK   31  A    between atoms: _74  and  _76
REMARK   32  A    between atoms: _76  and  _77
REMARK   33  A    between atoms: _76  and  _79
REMARK   34  A    between atoms: _79  and  _80
REMARK   35  A    between atoms: _83  and  _85
REMARK   36  A    between atoms: _85  and  _86
REMARK   37  A    between atoms: _85  and  _88
REMARK   38  A    between atoms: _88  and  _89
REMARK   39  A    between atoms: _92  and  _94
REMARK   40  A    between atoms: _94  and  _95
REMARK   41  A    between atoms: _94  and  _97
REMARK   42  A    between atoms: _100  and  _102
REMARK   43  A    between atoms: _102  and  _103
REMARK   44  A    between atoms: _102  and  _105
REMARK   45  A    between atoms: _105  and  _106
REMARK   46  A    between atoms: _109  and  _111
REMARK   47  A    between atoms: _111  and  _112
REMARK   48  A    between atoms: _111  and  _114
REMARK   49  A    between atoms: _114  and  _115
REMARK   50  A    between atoms: _115  and  _116
REMARK   51  A    between atoms: _116  and  _117
REMARK   52  A    between atoms: _117  and  _118
REMARK   53  A    between atoms: _122  and  _124
REMARK   54  A    between atoms: _124  and  _125
REMARK   55  A    between atoms: _124  and  _127
REMARK   56  A    between atoms: _127  and  _128
REMARK   57  A    between atoms: _128  and  _129
REMARK   58  A    between atoms: _131  and  _133
REMARK   59  A    between atoms: _133  and  _134
REMARK   60  A    between atoms: _133  and  _136
REMARK   61  A    between atoms: _136  and  _137
REMARK   62  A    between atoms: _140  and  _142
REMARK   63  A    between atoms: _142  and  _143
REMARK   64  A    between atoms: _145  and  _147
REMARK   65  A    between atoms: _147  and  _148
REMARK   66  A    between atoms: _150  and  _152
REMARK   67  A    between atoms: _152  and  _153
REMARK   68  A    between atoms: _152  and  _155
REMARK   69  A    between atoms: _155  and  _156
REMARK   70  A    between atoms: _159  and  _161
REMARK   71  A    between atoms: _161  and  _162
REMARK   72  A    between atoms: _164  and  _166
REMARK   73  A    between atoms: _166  and  _167
REMARK   74  A    between atoms: _169  and  _171
REMARK   75  A    between atoms: _171  and  _172
REMARK   76  A    between atoms: _171  and  _174
REMARK   77  A    between atoms: _174  and  _175
REMARK   78  A    between atoms: _181  and  _183
REMARK   79  A    between atoms: _183  and  _184
REMARK   80  A    between atoms: _183  and  _186
REMARK   81  A    between atoms: _186  and  _187
REMARK   82  A    between atoms: _190  and  _192
REMARK   83  A    between atoms: _192  and  _193
REMARK   84  A    between atoms: _192  and  _195
REMARK   85  A    between atoms: _198  and  _200
REMARK   86  A    between atoms: _200  and  _201
REMARK   87  A    between atoms: _200  and  _203
REMARK   88  A    between atoms: _203  and  _204
REMARK   89  A    between atoms: _208  and  _209
REMARK   90  A    between atoms: _214  and  _216
REMARK   91  A    between atoms: _216  and  _217
REMARK   92  A    between atoms: _216  and  _219
REMARK   93  A    between atoms: _219  and  _220
REMARK   94  A    between atoms: _224  and  _225
REMARK   95  A    between atoms: _230  and  _232
REMARK   96  A    between atoms: _232  and  _233
REMARK   97  A    between atoms: _232  and  _235
REMARK   98  A    between atoms: _235  and  _236
REMARK   99  A    between atoms: _242  and  _244
REMARK  100  A    between atoms: _244  and  _245
REMARK  101  A    between atoms: _244  and  _247
REMARK  102  A    between atoms: _247  and  _248
REMARK  103  A    between atoms: _253  and  _255
REMARK  104  A    between atoms: _255  and  _256
REMARK  105  A    between atoms: _255  and  _258
REMARK  106  A    between atoms: _261  and  _263
REMARK  107  A    between atoms: _263  and  _264
REMARK  108  A    between atoms: _263  and  _266
REMARK  109  A    between atoms: _266  and  _267
REMARK  110  A    between atoms: _270  and  _272
REMARK  111  A    between atoms: _272  and  _273
REMARK  112  A    between atoms: _275  and  _277
REMARK  113  A    between atoms: _277  and  _278
REMARK  114  A    between atoms: _277  and  _280
REMARK  115  A    between atoms: _280  and  _281
REMARK  116  A    between atoms: _281  and  _282
REMARK  117  A    between atoms: _282  and  _283
REMARK  118  A    between atoms: _292  and  _294
REMARK  119  A    between atoms: _294  and  _295
REMARK  120  A    between atoms: _294  and  _297
REMARK  121  A    between atoms: _297  and  _298
REMARK  122  A    between atoms: _303  and  _305
REMARK  123  A    between atoms: _305  and  _306
REMARK  124  A    between atoms: _305  and  _308
REMARK  125  A    between atoms: _308  and  _309
REMARK  126  A    between atoms: _309  and  _310
REMARK  127  A    between atoms: _310  and  _311
REMARK  128  A    between atoms: _320  and  _322
REMARK  129  A    between atoms: _322  and  _323
REMARK  130  A    between atoms: _322  and  _325
REMARK  131  A    between atoms: _325  and  _326
REMARK  132  A    between atoms: _329  and  _331
REMARK  133  A    between atoms: _331  and  _332
REMARK  134  A    between atoms: _331  and  _334
REMARK  135  A    between atoms: _334  and  _335
REMARK  136  A    between atoms: _338  and  _340
REMARK  137  A    between atoms: _340  and  _341
REMARK  138  A    between atoms: _340  and  _343
REMARK  139  A    between atoms: _343  and  _344
REMARK  140  A    between atoms: _347  and  _349
REMARK  141  A    between atoms: _349  and  _350
REMARK  142  A    between atoms: _349  and  _352
REMARK  143  A    between atoms: _352  and  _353
REMARK  144  A    between atoms: _356  and  _358
REMARK  145  A    between atoms: _358  and  _359
REMARK  146  A    between atoms: _358  and  _361
REMARK  147  A    between atoms: _361  and  _362
REMARK  148  A    between atoms: _365  and  _367
REMARK  149  A    between atoms: _367  and  _368
REMARK  150  A    between atoms: _370  and  _372
REMARK  151  A    between atoms: _372  and  _373
REMARK  152  A    between atoms: _376  and  _378
REMARK  153  A    between atoms: _378  and  _379
REMARK  154  A    between atoms: _378  and  _381
REMARK  155  A    between atoms: _381  and  _382
REMARK  156  A    between atoms: _385  and  _387
REMARK  157  A    between atoms: _387  and  _388
REMARK  158  A    between atoms: _387  and  _390
REMARK  159  A    between atoms: _390  and  _391
REMARK  160  A    between atoms: _394  and  _396
REMARK  161  A    between atoms: _396  and  _397
REMARK  162  A    between atoms: _396  and  _399
REMARK  163  A    between atoms: _399  and  _400
REMARK  164  A    between atoms: _403  and  _405
REMARK  165  A    between atoms: _405  and  _406
REMARK  166  A    between atoms: _405  and  _408
REMARK  167  A    between atoms: _411  and  _413
REMARK  168  A    between atoms: _413  and  _414
REMARK  169  A    between atoms: _413  and  _416
REMARK  170  A    between atoms: _416  and  _417
REMARK  171  A    between atoms: _417  and  _418
REMARK  172  A    between atoms: _418  and  _419
REMARK  173  A    between atoms: _419  and  _420
REMARK  174  A    between atoms: _424  and  _426
REMARK  175  A    between atoms: _426  and  _427
REMARK  176  A    between atoms: _426  and  _429
REMARK  177  A    between atoms: _429  and  _430
REMARK  178  A    between atoms: _430  and  _431
REMARK  179  A    between atoms: _433  and  _435
REMARK  180  A    between atoms: _435  and  _436
REMARK  181  A    between atoms: _435  and  _438
REMARK  182  A    between atoms: _438  and  _439
REMARK  183  A    between atoms: _442  and  _444
REMARK  184  A    between atoms: _444  and  _445
REMARK  185  A    between atoms: _447  and  _449
REMARK  186  A    between atoms: _449  and  _450
REMARK  187  A    between atoms: _452  and  _454
REMARK  188  A    between atoms: _454  and  _455
REMARK  189  A    between atoms: _454  and  _457
REMARK  190  A    between atoms: _457  and  _458
REMARK  191  A    between atoms: _461  and  _463
REMARK  192  A    between atoms: _463  and  _464
REMARK  193  A    between atoms: _466  and  _468
REMARK  194  A    between atoms: _468  and  _469
REMARK  195  A    between atoms: _471  and  _473
REMARK  196  A    between atoms: _473  and  _474
REMARK  197  A    between atoms: _473  and  _476
REMARK  198  A    between atoms: _476  and  _477
REMARK  199  A    between atoms: _480  and  _482
REMARK  200  A    between atoms: _482  and  _483
REMARK  201  A    between atoms: _482  and  _485
REMARK  202  A    between atoms: _488  and  _490
REMARK  203  A    between atoms: _490  and  _491
REMARK  204  A    between atoms: _490  and  _493
REMARK  205  A    between atoms: _493  and  _494
REMARK  206  A    between atoms: _498  and  _499
REMARK  207  A    between atoms: _504  and  _506
REMARK  208  A    between atoms: _506  and  _507
REMARK  209  A    between atoms: _506  and  _509
REMARK  210  A    between atoms: _509  and  _510
REMARK  211  A    between atoms: _514  and  _515
REMARK  212  A    between atoms: _520  and  _522
REMARK  213  A    between atoms: _522  and  _523
REMARK  214  A    between atoms: _522  and  _525
REMARK  215  A    between atoms: _525  and  _526
REMARK  216  A    between atoms: _532  and  _534
REMARK  217  A    between atoms: _534  and  _535
REMARK  218  A    between atoms: _534  and  _537
REMARK  219  A    between atoms: _537  and  _538
REMARK  220  A    between atoms: _543  and  _545
REMARK  221  A    between atoms: _545  and  _546
REMARK  222  A    between atoms: _545  and  _548
REMARK  223  A    between atoms: _551  and  _553
REMARK  224  A    between atoms: _553  and  _554
REMARK  225  A    between atoms: _553  and  _556
REMARK  226  A    between atoms: _556  and  _557
REMARK  227  A    between atoms: _560  and  _562
REMARK  228  A    between atoms: _562  and  _563
REMARK  229  A    between atoms: _565  and  _567
REMARK  230  A    between atoms: _567  and  _568
REMARK  231  A    between atoms: _567  and  _570
REMARK  232  A    between atoms: _570  and  _571
REMARK  233  A    between atoms: _571  and  _572
REMARK  234  A    between atoms: _572  and  _573
REMARK  235  A    between atoms: _582  and  _584
REMARK  236  A    between atoms: _584  and  _585
REMARK  237  A    between atoms: _584  and  _587
REMARK  238  A    between atoms: _587  and  _588
REMARK                            x       y       z     vdW  Elec       q    Type
REMARK                         _______ _______ _______ _____ _____    ______ ____
ROOT
ATOM      1  O   HOH     1      24.210  24.771  18.919  0.00  0.00    +0.000 OA
ENDROOT
TORSDOF 0
REMARK  Name = ../refined-set-2016/1msn/1msn_pocket.pdb
REMARK  238 active torsions:
REMARK  status: ('A' for Active; 'I' for Inactive)
REMARK    1  A    between atoms: _1  and  _3
REMARK    2  A    between atoms: _3  and  _4
REMARK    3  A    between atoms: _3  and  _6
REMARK    4  A    between atoms: _6  and  _7
REMARK    5  A    between atoms: _7  and  _8
REMARK    6  A    between atoms: _8  and  _9
REMARK    7  A    between atoms: _18  and  _20
REMARK    8  A    between atoms: _20  and  _21
REMARK    9  A    between atoms: _20  and  _23
REMARK   10  A    between atoms: _23  and  _24
REMARK   11  A    between atoms: _27  and  _29
REMARK   12  A    between atoms: _29  and  _30
REMARK   13  A    between atoms: _29  and  _32
REMARK   14  A    between atoms: _32  and  _33
REMARK   15  A    between atoms: _36  and  _38
REMARK   16  A    between atoms: _38  and  _39
REMARK   17  A    between atoms: _38  and  _41
REMARK   18  A    between atoms: _41  and  _42
REMARK   19  A    between atoms: _45  and  _47
REMARK   20  A    between atoms: _47  and  _48
REMARK   21  A    between atoms: _47  and  _50
REMARK   22  A    between atoms: _50  and  _51
REMARK   23  A    between atoms: _54  and  _56
REMARK   24  A    between atoms: _56  and  _57
REMARK   25  A    between atoms: _59  and  _61
REMARK   26  A    between atoms: _61  and  _62
REMARK   27  A    between atoms: _65  and  _67
REMARK   28  A    between atoms: _67  and  _68
REMARK   29  A    between atoms: _67  and  _70
REMARK   30  A    between atoms: _70  and  _71
REMARK   31  A    between atoms: _74  and  _76
REMARK   32  A    between atoms: _76  and  _77
REMARK   33  A    between atoms: _76  and  _79
REMARK   34  A    between atoms: _79  and  _80
REMARK   35  A    between atoms: _83  and  _85
REMARK   36  A    between atoms: _85  and  _86
REMARK   37  A    between atoms: _85  and  _88
REMARK   38  A    between atoms: _88  and  _89
REMARK   39  A    between atoms: _92  and  _94
REMARK   40  A    between atoms: _94  and  _95
REMARK   41  A    between atoms: _94  and  _97
REMARK   42  A    between atoms: _100  and  _102
REMARK   43  A    between atoms: _102  and  _103
REMARK   44  A    between atoms: _102  and  _105
REMARK   45  A    between atoms: _105  and  _106
REMARK   46  A    between atoms: _109  and  _111
REMARK   47  A    between atoms: _111  and  _112
REMARK   48  A    between atoms: _111  and  _114
REMARK   49  A    between atoms: _114  and  _115
REMARK   50  A    between atoms: _115  and  _116
REMARK   51  A    between atoms: _116  and  _117
REMARK   52  A    between atoms: _117  and  _118
REMARK   53  A    between atoms: _122  and  _124
REMARK   54  A    between atoms: _124  and  _125
REMARK   55  A    between atoms: _124  and  _127
REMARK   56  A    between atoms: _127  and  _128
REMARK   57  A    between atoms: _128  and  _129
REMARK   58  A    between atoms: _131  and  _133
REMARK   59  A    between atoms: _133  and  _134
REMARK   60  A    between atoms: _133  and  _136
REMARK   61  A    between atoms: _136  and  _137
REMARK   62  A    between atoms: _140  and  _142
REMARK   63  A    between atoms: _142  and  _143
REMARK   64  A    between atoms: _145  and  _147
REMARK   65  A    between atoms: _147  and  _148
REMARK   66  A    between atoms: _150  and  _152
REMARK   67  A    between atoms: _152  and  _153
REMARK   68  A    between atoms: _152  and  _155
REMARK   69  A    between atoms: _155  and  _156
REMARK   70  A    between atoms: _159  and  _161
REMARK   71  A    between atoms: _161  and  _162
REMARK   72  A    between atoms: _164  and  _166
REMARK   73  A    between atoms: _166  and  _167
REMARK   74  A    between atoms: _169  and  _171
REMARK   75  A    between atoms: _171  and  _172
REMARK   76  A    between atoms: _171  and  _174
REMARK   77  A    between atoms: _174  and  _175
REMARK   78  A    between atoms: _181  and  _183
REMARK   79  A    between atoms: _183  and  _184
REMARK   80  A    between atoms: _183  and  _186
REMARK   81  A    between atoms: _186  and  _187
REMARK   82  A    between atoms: _190  and  _192
REMARK   83  A    between atoms: _192  and  _193
REMARK   84  A    between atoms: _192  and  _195
REMARK   85  A    between atoms: _198  and  _200
REMARK   86  A    between atoms: _200  and  _201
REMARK   87  A    between atoms: _200  and  _203
REMARK   88  A    between atoms: _203  and  _204
REMARK   89  A    between atoms: _208  and  _209
REMARK   90  A    between atoms: _214  and  _216
REMARK   91  A    between atoms: _216  and  _217
REMARK   92  A    between atoms: _216  and  _219
REMARK   93  A    between atoms: _219  and  _220
REMARK   94  A    between atoms: _224  and  _225
REMARK   95  A    between atoms: _230  and  _232
REMARK   96  A    between atoms: _232  and  _233
REMARK   97  A    between atoms: _232  and  _235
REMARK   98  A    between atoms: _235  and  _236
REMARK   99  A    between atoms: _242  and  _244
REMARK  100  A    between atoms: _244  and  _245
REMARK  101  A    between atoms: _244  and  _247
REMARK  102  A    between atoms: _247  and  _248
REMARK  103  A    between atoms: _253  and  _255
REMARK  104  A    between atoms: _255  and  _256
REMARK  105  A    between atoms: _255  and  _258
REMARK  106  A    between atoms: _261  and  _263
REMARK  107  A    between atoms: _263  and  _264
REMARK  108  A    between atoms: _263  and  _266
REMARK  109  A    between atoms: _266  and  _267
REMARK  110  A    between atoms: _270  and  _272
REMARK  111  A    between atoms: _272  and  _273
REMARK  112  A    between atoms: _275  and  _277
REMARK  113  A    between atoms: _277  and  _278
REMARK  114  A    between atoms: _277  and  _280
REMARK  115  A    between atoms: _280  and  _281
REMARK  116  A    between atoms: _281  and  _282
REMARK  117  A    between atoms: _282  and  _283
REMARK  118  A    between atoms: _292  and  _294
REMARK  119  A    between atoms: _294  and  _295
REMARK  120  A    between atoms: _294  and  _297
REMARK  121  A    between atoms: _297  and  _298
REMARK  122  A    between atoms: _303  and  _305
REMARK  123  A    between atoms: _305  and  _306
REMARK  124  A    between atoms: _305  and  _308
REMARK  125  A    between atoms: _308  and  _309
REMARK  126  A    between atoms: _309  and  _310
REMARK  127  A    between atoms: _310  and  _311
REMARK  128  A    between atoms: _320  and  _322
REMARK  129  A    between atoms: _322  and  _323
REMARK  130  A    between atoms: _322  and  _325
REMARK  131  A    between atoms: _325  and  _326
REMARK  132  A    between atoms: _329  and  _331
REMARK  133  A    between atoms: _331  and  _332
REMARK  134  A    between atoms: _331  and  _334
REMARK  135  A    between atoms: _334  and  _335
REMARK  136  A    between atoms: _338  and  _340
REMARK  137  A    between atoms: _340  and  _341
REMARK  138  A    between atoms: _340  and  _343
REMARK  139  A    between atoms: _343  and  _344
REMARK  140  A    between atoms: _347  and  _349
REMARK  141  A    between atoms: _349  and  _350
REMARK  142  A    between atoms: _349  and  _352
REMARK  143  A    between atoms: _352  and  _353
REMARK  144  A    between atoms: _356  and  _358
REMARK  145  A    between atoms: _358  and  _359
REMARK  146  A    between atoms: _358  and  _361
REMARK  147  A    between atoms: _361  and  _362
REMARK  148  A    between atoms: _365  and  _367
REMARK  149  A    between atoms: _367  and  _368
REMARK  150  A    between atoms: _370  and  _372
REMARK  151  A    between atoms: _372  and  _373
REMARK  152  A    between atoms: _376  and  _378
REMARK  153  A    between atoms: _378  and  _379
REMARK  154  A    between atoms: _378  and  _381
REMARK  155  A    between atoms: _381  and  _382
REMARK  156  A    between atoms: _385  and  _387
REMARK  157  A    between atoms: _387  and  _388
REMARK  158  A    between atoms: _387  and  _390
REMARK  159  A    between atoms: _390  and  _391
REMARK  160  A    between atoms: _394  and  _396
REMARK  161  A    between atoms: _396  and  _397
REMARK  162  A    between atoms: _396  and  _399
REMARK  163  A    between atoms: _399  and  _400
REMARK  164  A    between atoms: _403  and  _405
REMARK  165  A    between atoms: _405  and  _406
REMARK  166  A    between atoms: _405  and  _408
REMARK  167  A    between atoms: _411  and  _413
REMARK  168  A    between atoms: _413  and  _414
REMARK  169  A    between atoms: _413  and  _416
REMARK  170  A    between atoms: _416  and  _417
REMARK  171  A    between atoms: _417  and  _418
REMARK  172  A    between atoms: _418  and  _419
REMARK  173  A    between atoms: _419  and  _420
REMARK  174  A    between atoms: _424  and  _426
REMARK  175  A    between atoms: _426  and  _427
REMARK  176  A    between atoms: _426  and  _429
REMARK  177  A    between atoms: _429  and  _430
REMARK  178  A    between atoms: _430  and  _431
REMARK  179  A    between atoms: _433  and  _435
REMARK  180  A    between atoms: _435  and  _436
REMARK  181  A    between atoms: _435  and  _438
REMARK  182  A    between atoms: _438  and  _439
REMARK  183  A    between atoms: _442  and  _444
REMARK  184  A    between atoms: _444  and  _445
REMARK  185  A    between atoms: _447  and  _449
REMARK  186  A    between atoms: _449  and  _450
REMARK  187  A    between atoms: _452  and  _454
REMARK  188  A    between atoms: _454  and  _455
REMARK  189  A    between atoms: _454  and  _457
REMARK  190  A    between atoms: _457  and  _458
REMARK  191  A    between atoms: _461  and  _463
REMARK  192  A    between atoms: _463  and  _464
REMARK  193  A    between atoms: _466  and  _468
REMARK  194  A    between atoms: _468  and  _469
REMARK  195  A    between atoms: _471  and  _473
REMARK  196  A    between atoms: _473  and  _474
REMARK  197  A    between atoms: _473  and  _476
REMARK  198  A    between atoms: _476  and  _477
REMARK  199  A    between atoms: _480  and  _482
REMARK  200  A    between atoms: _482  and  _483
REMARK  201  A    between atoms: _482  and  _485
REMARK  202  A    between atoms: _488  and  _490
REMARK  203  A    between atoms: _490  and  _491
REMARK  204  A    between atoms: _490  and  _493
REMARK  205  A    between atoms: _493  and  _494
REMARK  206  A    between atoms: _498  and  _499
REMARK  207  A    between atoms: _504  and  _506
REMARK  208  A    between atoms: _506  and  _507
REMARK  209  A    between atoms: _506  and  _509
REMARK  210  A    between atoms: _509  and  _510
REMARK  211  A    between atoms: _514  and  _515
REMARK  212  A    between atoms: _520  and  _522
REMARK  213  A    between atoms: _522  and  _523
REMARK  214  A    between atoms: _522  and  _525
REMARK  215  A    between atoms: _525  and  _526
REMARK  216  A    between atoms: _532  and  _534
REMARK  217  A    between atoms: _534  and  _535
REMARK  218  A    between atoms: _534  and  _537
REMARK  219  A    between atoms: _537  and  _538
REMARK  220  A    between atoms: _543  and  _545
REMARK  221  A    between atoms: _545  and  _546
REMARK  222  A    between atoms: _545  and  _548
REMARK  223  A    between atoms: _551  and  _553
REMARK  224  A    between atoms: _553  and  _554
REMARK  225  A    between atoms: _553  and  _556
REMARK  226  A    between atoms: _556  and  _557
REMARK  227  A    between atoms: _560  and  _562
REMARK  228  A    between atoms: _562  and  _563
REMARK  229  A    between atoms: _565  and  _567
REMARK  230  A    between atoms: _567  and  _568
REMARK  231  A    between atoms: _567  and  _570
REMARK  232  A    between atoms: _570  and  _571
REMARK  233  A    between atoms: _571  and  _572
REMARK  234  A    between atoms: _572  and  _573
REMARK  235  A    between atoms: _582  and  _584
REMARK  236  A    between atoms: _584  and  _585
REMARK  237  A    between atoms: _584  and  _587
REMARK  238  A    between atoms: _587  and  _588
REMARK                            x       y       z     vdW  Elec       q    Type
REMARK                         _______ _______ _______ _____ _____    ______ ____
ROOT
ATOM      1  O   HOH     1      21.225  35.910  17.082  0.00  0.00    +0.000 OA
ENDROOT
TORSDOF 0
REMARK  Name = ../refined-set-2016/1msn/1msn_pocket.pdb
REMARK  238 active torsions:
REMARK  status: ('A' for Active; 'I' for Inactive)
REMARK    1  A    between atoms: _1  and  _3
REMARK    2  A    between atoms: _3  and  _4
REMARK    3  A    between atoms: _3  and  _6
REMARK    4  A    between atoms: _6  and  _7
REMARK    5  A    between atoms: _7  and  _8
REMARK    6  A    between atoms: _8  and  _9
REMARK    7  A    between atoms: _18  and  _20
REMARK    8  A    between atoms: _20  and  _21
REMARK    9  A    between atoms: _20  and  _23
REMARK   10  A    between atoms: _23  and  _24
REMARK   11  A    between atoms: _27  and  _29
REMARK   12  A    between atoms: _29  and  _30
REMARK   13  A    between atoms: _29  and  _32
REMARK   14  A    between atoms: _32  and  _33
REMARK   15  A    between atoms: _36  and  _38
REMARK   16  A    between atoms: _38  and  _39
REMARK   17  A    between atoms: _38  and  _41
REMARK   18  A    between atoms: _41  and  _42
REMARK   19  A    between atoms: _45  and  _47
REMARK   20  A    between atoms: _47  and  _48
REMARK   21  A    between atoms: _47  and  _50
REMARK   22  A    between atoms: _50  and  _51
REMARK   23  A    between atoms: _54  and  _56
REMARK   24  A    between atoms: _56  and  _57
REMARK   25  A    between atoms: _59  and  _61
REMARK   26  A    between atoms: _61  and  _62
REMARK   27  A    between atoms: _65  and  _67
REMARK   28  A    between atoms: _67  and  _68
REMARK   29  A    between atoms: _67  and  _70
REMARK   30  A    between atoms: _70  and  _71
REMARK   31  A    between atoms: _74  and  _76
REMARK   32  A    between atoms: _76  and  _77
REMARK   33  A    between atoms: _76  and  _79
REMARK   34  A    between atoms: _79  and  _80
REMARK   35  A    between atoms: _83  and  _85
REMARK   36  A    between atoms: _85  and  _86
REMARK   37  A    between atoms: _85  and  _88
REMARK   38  A    between atoms: _88  and  _89
REMARK   39  A    between atoms: _92  and  _94
REMARK   40  A    between atoms: _94  and  _95
REMARK   41  A    between atoms: _94  and  _97
REMARK   42  A    between atoms: _100  and  _102
REMARK   43  A    between atoms: _102  and  _103
REMARK   44  A    between atoms: _102  and  _105
REMARK   45  A    between atoms: _105  and  _106
REMARK   46  A    between atoms: _109  and  _111
REMARK   47  A    between atoms: _111  and  _112
REMARK   48  A    between atoms: _111  and  _114
REMARK   49  A    between atoms: _114  and  _115
REMARK   50  A    between atoms: _115  and  _116
REMARK   51  A    between atoms: _116  and  _117
REMARK   52  A    between atoms: _117  and  _118
REMARK   53  A    between atoms: _122  and  _124
REMARK   54  A    between atoms: _124  and  _125
REMARK   55  A    between atoms: _124  and  _127
REMARK   56  A    between atoms: _127  and  _128
REMARK   57  A    between atoms: _128  and  _129
REMARK   58  A    between atoms: _131  and  _133
REMARK   59  A    between atoms: _133  and  _134
REMARK   60  A    between atoms: _133  and  _136
REMARK   61  A    between atoms: _136  and  _137
REMARK   62  A    between atoms: _140  and  _142
REMARK   63  A    between atoms: _142  and  _143
REMARK   64  A    between atoms: _145  and  _147
REMARK   65  A    between atoms: _147  and  _148
REMARK   66  A    between atoms: _150  and  _152
REMARK   67  A    between atoms: _152  and  _153
REMARK   68  A    between atoms: _152  and  _155
REMARK   69  A    between atoms: _155  and  _156
REMARK   70  A    between atoms: _159  and  _161
REMARK   71  A    between atoms: _161  and  _162
REMARK   72  A    between atoms: _164  and  _166
REMARK   73  A    between atoms: _166  and  _167
REMARK   74  A    between atoms: _169  and  _171
REMARK   75  A    between atoms: _171  and  _172
REMARK   76  A    between atoms: _171  and  _174
REMARK   77  A    between atoms: _174  and  _175
REMARK   78  A    between atoms: _181  and  _183
REMARK   79  A    between atoms: _183  and  _184
REMARK   80  A    between atoms: _183  and  _186
REMARK   81  A    between atoms: _186  and  _187
REMARK   82  A    between atoms: _190  and  _192
REMARK   83  A    between atoms: _192  and  _193
REMARK   84  A    between atoms: _192  and  _195
REMARK   85  A    between atoms: _198  and  _200
REMARK   86  A    between atoms: _200  and  _201
REMARK   87  A    between atoms: _200  and  _203
REMARK   88  A    between atoms: _203  and  _204
REMARK   89  A    between atoms: _208  and  _209
REMARK   90  A    between atoms: _214  and  _216
REMARK   91  A    between atoms: _216  and  _217
REMARK   92  A    between atoms: _216  and  _219
REMARK   93  A    between atoms: _219  and  _220
REMARK   94  A    between atoms: _224  and  _225
REMARK   95  A    between atoms: _230  and  _232
REMARK   96  A    between atoms: _232  and  _233
REMARK   97  A    between atoms: _232  and  _235
REMARK   98  A    between atoms: _235  and  _236
REMARK   99  A    between atoms: _242  and  _244
REMARK  100  A    between atoms: _244  and  _245
REMARK  101  A    between atoms: _244  and  _247
REMARK  102  A    between atoms: _247  and  _248
REMARK  103  A    between atoms: _253  and  _255
REMARK  104  A    between atoms: _255  and  _256
REMARK  105  A    between atoms: _255  and  _258
REMARK  106  A    between atoms: _261  and  _263
REMARK  107  A    between atoms: _263  and  _264
REMARK  108  A    between atoms: _263  and  _266
REMARK  109  A    between atoms: _266  and  _267
REMARK  110  A    between atoms: _270  and  _272
REMARK  111  A    between atoms: _272  and  _273
REMARK  112  A    between atoms: _275  and  _277
REMARK  113  A    between atoms: _277  and  _278
REMARK  114  A    between atoms: _277  and  _280
REMARK  115  A    between atoms: _280  and  _281
REMARK  116  A    between atoms: _281  and  _282
REMARK  117  A    between atoms: _282  and  _283
REMARK  118  A    between atoms: _292  and  _294
REMARK  119  A    between atoms: _294  and  _295
REMARK  120  A    between atoms: _294  and  _297
REMARK  121  A    between atoms: _297  and  _298
REMARK  122  A    between atoms: _303  and  _305
REMARK  123  A    between atoms: _305  and  _306
REMARK  124  A    between atoms: _305  and  _308
REMARK  125  A    between atoms: _308  and  _309
REMARK  126  A    between atoms: _309  and  _310
REMARK  127  A    between atoms: _310  and  _311
REMARK  128  A    between atoms: _320  and  _322
REMARK  129  A    between atoms: _322  and  _323
REMARK  130  A    between atoms: _322  and  _325
REMARK  131  A    between atoms: _325  and  _326
REMARK  132  A    between atoms: _329  and  _331
REMARK  133  A    between atoms: _331  and  _332
REMARK  134  A    between atoms: _331  and  _334
REMARK  135  A    between atoms: _334  and  _335
REMARK  136  A    between atoms: _338  and  _340
REMARK  137  A    between atoms: _340  and  _341
REMARK  138  A    between atoms: _340  and  _343
REMARK  139  A    between atoms: _343  and  _344
REMARK  140  A    between atoms: _347  and  _349
REMARK  141  A    between atoms: _349  and  _350
REMARK  142  A    between atoms: _349  and  _352
REMARK  143  A    between atoms: _352  and  _353
REMARK  144  A    between atoms: _356  and  _358
REMARK  145  A    between atoms: _358  and  _359
REMARK  146  A    between atoms: _358  and  _361
REMARK  147  A    between atoms: _361  and  _362
REMARK  148  A    between atoms: _365  and  _367
REMARK  149  A    between atoms: _367  and  _368
REMARK  150  A    between atoms: _370  and  _372
REMARK  151  A    between atoms: _372  and  _373
REMARK  152  A    between atoms: _376  and  _378
REMARK  153  A    between atoms: _378  and  _379
REMARK  154  A    between atoms: _378  and  _381
REMARK  155  A    between atoms: _381  and  _382
REMARK  156  A    between atoms: _385  and  _387
REMARK  157  A    between atoms: _387  and  _388
REMARK  158  A    between atoms: _387  and  _390
REMARK  159  A    between atoms: _390  and  _391
REMARK  160  A    between atoms: _394  and  _396
REMARK  161  A    between atoms: _396  and  _397
REMARK  162  A    between atoms: _396  and  _399
REMARK  163  A    between atoms: _399  and  _400
REMARK  164  A    between atoms: _403  and  _405
REMARK  165  A    between atoms: _405  and  _406
REMARK  166  A    between atoms: _405  and  _408
REMARK  167  A    between atoms: _411  and  _413
REMARK  168  A    between atoms: _413  and  _414
REMARK  169  A    between atoms: _413  and  _416
REMARK  170  A    between atoms: _416  and  _417
REMARK  171  A    between atoms: _417  and  _418
REMARK  172  A    between atoms: _418  and  _419
REMARK  173  A    between atoms: _419  and  _420
REMARK  174  A    between atoms: _424  and  _426
REMARK  175  A    between atoms: _426  and  _427
REMARK  176  A    between atoms: _426  and  _429
REMARK  177  A    between atoms: _429  and  _430
REMARK  178  A    between atoms: _430  and  _431
REMARK  179  A    between atoms: _433  and  _435
REMARK  180  A    between atoms: _435  and  _436
REMARK  181  A    between atoms: _435  and  _438
REMARK  182  A    between atoms: _438  and  _439
REMARK  183  A    between atoms: _442  and  _444
REMARK  184  A    between atoms: _444  and  _445
REMARK  185  A    between atoms: _447  and  _449
REMARK  186  A    between atoms: _449  and  _450
REMARK  187  A    between atoms: _452  and  _454
REMARK  188  A    between atoms: _454  and  _455
REMARK  189  A    between atoms: _454  and  _457
REMARK  190  A    between atoms: _457  and  _458
REMARK  191  A    between atoms: _461  and  _463
REMARK  192  A    between atoms: _463  and  _464
REMARK  193  A    between atoms: _466  and  _468
REMARK  194  A    between atoms: _468  and  _469
REMARK  195  A    between atoms: _471  and  _473
REMARK  196  A    between atoms: _473  and  _474
REMARK  197  A    between atoms: _473  and  _476
REMARK  198  A    between atoms: _476  and  _477
REMARK  199  A    between atoms: _480  and  _482
REMARK  200  A    between atoms: _482  and  _483
REMARK  201  A    between atoms: _482  and  _485
REMARK  202  A    between atoms: _488  and  _490
REMARK  203  A    between atoms: _490  and  _491
REMARK  204  A    between atoms: _490  and  _493
REMARK  205  A    between atoms: _493  and  _494
REMARK  206  A    between atoms: _498  and  _499
REMARK  207  A    between atoms: _504  and  _506
REMARK  208  A    between atoms: _506  and  _507
REMARK  209  A    between atoms: _506  and  _509
REMARK  210  A    between atoms: _509  and  _510
REMARK  211  A    between atoms: _514  and  _515
REMARK  212  A    between atoms: _520  and  _522
REMARK  213  A    between atoms: _522  and  _523
REMARK  214  A    between atoms: _522  and  _525
REMARK  215  A    between atoms: _525  and  _526
REMARK  216  A    between atoms: _532  and  _534
REMARK  217  A    between atoms: _534  and  _535
REMARK  218  A    between atoms: _534  and  _537
REMARK  219  A    between atoms: _537  and  _538
REMARK  220  A    between atoms: _543  and  _545
REMARK  221  A    between atoms: _545  and  _546
REMARK  222  A    between atoms: _545  and  _548
REMARK  223  A    between atoms: _551  and  _553
REMARK  224  A    between atoms: _553  and  _554
REMARK  225  A    between atoms: _553  and  _556
REMARK  226  A    between atoms: _556  and  _557
REMARK  227  A    between atoms: _560  and  _562
REMARK  228  A    between atoms: _562  and  _563
REMARK  229  A    between atoms: _565  and  _567
REMARK  230  A    between atoms: _567  and  _568
REMARK  231  A    between atoms: _567  and  _570
REMARK  232  A    between atoms: _570  and  _571
REMARK  233  A    between atoms: _571  and  _572
REMARK  234  A    between atoms: _572  and  _573
REMARK  235  A    between atoms: _582  and  _584
REMARK  236  A    between atoms: _584  and  _585
REMARK  237  A    between atoms: _584  and  _587
REMARK  238  A    between atoms: _587  and  _588
REMARK                            x       y       z     vdW  Elec       q    Type
REMARK                         _______ _______ _______ _____ _____    ______ ____
ROOT
ATOM      1  O   HOH     1       9.114  24.328   7.773  0.00  0.00    +0.000 OA
ENDROOT
TORSDOF 0
REMARK  Name = ../refined-set-2016/1msn/1msn_pocket.pdb
REMARK  238 active torsions:
REMARK  status: ('A' for Active; 'I' for Inactive)
REMARK    1  A    between atoms: _1  and  _3
REMARK    2  A    between atoms: _3  and  _4
REMARK    3  A    between atoms: _3  and  _6
REMARK    4  A    between atoms: _6  and  _7
REMARK    5  A    between atoms: _7  and  _8
REMARK    6  A    between atoms: _8  and  _9
REMARK    7  A    between atoms: _18  and  _20
REMARK    8  A    between atoms: _20  and  _21
REMARK    9  A    between atoms: _20  and  _23
REMARK   10  A    between atoms: _23  and  _24
REMARK   11  A    between atoms: _27  and  _29
REMARK   12  A    between atoms: _29  and  _30
REMARK   13  A    between atoms: _29  and  _32
REMARK   14  A    between atoms: _32  and  _33
REMARK   15  A    between atoms: _36  and  _38
REMARK   16  A    between atoms: _38  and  _39
REMARK   17  A    between atoms: _38  and  _41
REMARK   18  A    between atoms: _41  and  _42
REMARK   19  A    between atoms: _45  and  _47
REMARK   20  A    between atoms: _47  and  _48
REMARK   21  A    between atoms: _47  and  _50
REMARK   22  A    between atoms: _50  and  _51
REMARK   23  A    between atoms: _54  and  _56
REMARK   24  A    between atoms: _56  and  _57
REMARK   25  A    between atoms: _59  and  _61
REMARK   26  A    between atoms: _61  and  _62
REMARK   27  A    between atoms: _65  and  _67
REMARK   28  A    between atoms: _67  and  _68
REMARK   29  A    between atoms: _67  and  _70
REMARK   30  A    between atoms: _70  and  _71
REMARK   31  A    between atoms: _74  and  _76
REMARK   32  A    between atoms: _76  and  _77
REMARK   33  A    between atoms: _76  and  _79
REMARK   34  A    between atoms: _79  and  _80
REMARK   35  A    between atoms: _83  and  _85
REMARK   36  A    between atoms: _85  and  _86
REMARK   37  A    between atoms: _85  and  _88
REMARK   38  A    between atoms: _88  and  _89
REMARK   39  A    between atoms: _92  and  _94
REMARK   40  A    between atoms: _94  and  _95
REMARK   41  A    between atoms: _94  and  _97
REMARK   42  A    between atoms: _100  and  _102
REMARK   43  A    between atoms: _102  and  _103
REMARK   44  A    between atoms: _102  and  _105
REMARK   45  A    between atoms: _105  and  _106
REMARK   46  A    between atoms: _109  and  _111
REMARK   47  A    between atoms: _111  and  _112
REMARK   48  A    between atoms: _111  and  _114
REMARK   49  A    between atoms: _114  and  _115
REMARK   50  A    between atoms: _115  and  _116
REMARK   51  A    between atoms: _116  and  _117
REMARK   52  A    between atoms: _117  and  _118
REMARK   53  A    between atoms: _122  and  _124
REMARK   54  A    between atoms: _124  and  _125
REMARK   55  A    between atoms: _124  and  _127
REMARK   56  A    between atoms: _127  and  _128
REMARK   57  A    between atoms: _128  and  _129
REMARK   58  A    between atoms: _131  and  _133
REMARK   59  A    between atoms: _133  and  _134
REMARK   60  A    between atoms: _133  and  _136
REMARK   61  A    between atoms: _136  and  _137
REMARK   62  A    between atoms: _140  and  _142
REMARK   63  A    between atoms: _142  and  _143
REMARK   64  A    between atoms: _145  and  _147
REMARK   65  A    between atoms: _147  and  _148
REMARK   66  A    between atoms: _150  and  _152
REMARK   67  A    between atoms: _152  and  _153
REMARK   68  A    between atoms: _152  and  _155
REMARK   69  A    between atoms: _155  and  _156
REMARK   70  A    between atoms: _159  and  _161
REMARK   71  A    between atoms: _161  and  _162
REMARK   72  A    between atoms: _164  and  _166
REMARK   73  A    between atoms: _166  and  _167
REMARK   74  A    between atoms: _169  and  _171
REMARK   75  A    between atoms: _171  and  _172
REMARK   76  A    between atoms: _171  and  _174
REMARK   77  A    between atoms: _174  and  _175
REMARK   78  A    between atoms: _181  and  _183
REMARK   79  A    between atoms: _183  and  _184
REMARK   80  A    between atoms: _183  and  _186
REMARK   81  A    between atoms: _186  and  _187
REMARK   82  A    between atoms: _190  and  _192
REMARK   83  A    between atoms: _192  and  _193
REMARK   84  A    between atoms: _192  and  _195
REMARK   85  A    between atoms: _198  and  _200
REMARK   86  A    between atoms: _200  and  _201
REMARK   87  A    between atoms: _200  and  _203
REMARK   88  A    between atoms: _203  and  _204
REMARK   89  A    between atoms: _208  and  _209
REMARK   90  A    between atoms: _214  and  _216
REMARK   91  A    between atoms: _216  and  _217
REMARK   92  A    between atoms: _216  and  _219
REMARK   93  A    between atoms: _219  and  _220
REMARK   94  A    between atoms: _224  and  _225
REMARK   95  A    between atoms: _230  and  _232
REMARK   96  A    between atoms: _232  and  _233
REMARK   97  A    between atoms: _232  and  _235
REMARK   98  A    between atoms: _235  and  _236
REMARK   99  A    between atoms: _242  and  _244
REMARK  100  A    between atoms: _244  and  _245
REMARK  101  A    between atoms: _244  and  _247
REMARK  102  A    between atoms: _247  and  _248
REMARK  103  A    between atoms: _253  and  _255
REMARK  104  A    between atoms: _255  and  _256
REMARK  105  A    between atoms: _255  and  _258
REMARK  106  A    between atoms: _261  and  _263
REMARK  107  A    between atoms: _263  and  _264
REMARK  108  A    between atoms: _263  and  _266
REMARK  109  A    between atoms: _266  and  _267
REMARK  110  A    between atoms: _270  and  _272
REMARK  111  A    between atoms: _272  and  _273
REMARK  112  A    between atoms: _275  and  _277
REMARK  113  A    between atoms: _277  and  _278
REMARK  114  A    between atoms: _277  and  _280
REMARK  115  A    between atoms: _280  and  _281
REMARK  116  A    between atoms: _281  and  _282
REMARK  117  A    between atoms: _282  and  _283
REMARK  118  A    between atoms: _292  and  _294
REMARK  119  A    between atoms: _294  and  _295
REMARK  120  A    between atoms: _294  and  _297
REMARK  121  A    between atoms: _297  and  _298
REMARK  122  A    between atoms: _303  and  _305
REMARK  123  A    between atoms: _305  and  _306
REMARK  124  A    between atoms: _305  and  _308
REMARK  125  A    between atoms: _308  and  _309
REMARK  126  A    between atoms: _309  and  _310
REMARK  127  A    between atoms: _310  and  _311
REMARK  128  A    between atoms: _320  and  _322
REMARK  129  A    between atoms: _322  and  _323
REMARK  130  A    between atoms: _322  and  _325
REMARK  131  A    between atoms: _325  and  _326
REMARK  132  A    between atoms: _329  and  _331
REMARK  133  A    between atoms: _331  and  _332
REMARK  134  A    between atoms: _331  and  _334
REMARK  135  A    between atoms: _334  and  _335
REMARK  136  A    between atoms: _338  and  _340
REMARK  137  A    between atoms: _340  and  _341
REMARK  138  A    between atoms: _340  and  _343
REMARK  139  A    between atoms: _343  and  _344
REMARK  140  A    between atoms: _347  and  _349
REMARK  141  A    between atoms: _349  and  _350
REMARK  142  A    between atoms: _349  and  _352
REMARK  143  A    between atoms: _352  and  _353
REMARK  144  A    between atoms: _356  and  _358
REMARK  145  A    between atoms: _358  and  _359
REMARK  146  A    between atoms: _358  and  _361
REMARK  147  A    between atoms: _361  and  _362
REMARK  148  A    between atoms: _365  and  _367
REMARK  149  A    between atoms: _367  and  _368
REMARK  150  A    between atoms: _370  and  _372
REMARK  151  A    between atoms: _372  and  _373
REMARK  152  A    between atoms: _376  and  _378
REMARK  153  A    between atoms: _378  and  _379
REMARK  154  A    between atoms: _378  and  _381
REMARK  155  A    between atoms: _381  and  _382
REMARK  156  A    between atoms: _385  and  _387
REMARK  157  A    between atoms: _387  and  _388
REMARK  158  A    between atoms: _387  and  _390
REMARK  159  A    between atoms: _390  and  _391
REMARK  160  A    between atoms: _394  and  _396
REMARK  161  A    between atoms: _396  and  _397
REMARK  162  A    between atoms: _396  and  _399
REMARK  163  A    between atoms: _399  and  _400
REMARK  164  A    between atoms: _403  and  _405
REMARK  165  A    between atoms: _405  and  _406
REMARK  166  A    between atoms: _405  and  _408
REMARK  167  A    between atoms: _411  and  _413
REMARK  168  A    between atoms: _413  and  _414
REMARK  169  A    between atoms: _413  and  _416
REMARK  170  A    between atoms: _416  and  _417
REMARK  171  A    between atoms: _417  and  _418
REMARK  172  A    between atoms: _418  and  _419
REMARK  173  A    between atoms: _419  and  _420
REMARK  174  A    between atoms: _424  and  _426
REMARK  175  A    between atoms: _426  and  _427
REMARK  176  A    between atoms: _426  and  _429
REMARK  177  A    between atoms: _429  and  _430
REMARK  178  A    between atoms: _430  and  _431
REMARK  179  A    between atoms: _433  and  _435
REMARK  180  A    between atoms: _435  and  _436
REMARK  181  A    between atoms: _435  and  _438
REMARK  182  A    between atoms: _438  and  _439
REMARK  183  A    between atoms: _442  and  _444
REMARK  184  A    between atoms: _444  and  _445
REMARK  185  A    between atoms: _447  and  _449
REMARK  186  A    between atoms: _449  and  _450
REMARK  187  A    between atoms: _452  and  _454
REMARK  188  A    between atoms: _454  and  _455
REMARK  189  A    between atoms: _454  and  _457
REMARK  190  A    between atoms: _457  and  _458
REMARK  191  A    between atoms: _461  and  _463
REMARK  192  A    between atoms: _463  and  _464
REMARK  193  A    between atoms: _466  and  _468
REMARK  194  A    between atoms: _468  and  _469
REMARK  195  A    between atoms: _471  and  _473
REMARK  196  A    between atoms: _473  and  _474
REMARK  197  A    between atoms: _473  and  _476
REMARK  198  A    between atoms: _476  and  _477
REMARK  199  A    between atoms: _480  and  _482
REMARK  200  A    between atoms: _482  and  _483
REMARK  201  A    between atoms: _482  and  _485
REMARK  202  A    between atoms: _488  and  _490
REMARK  203  A    between atoms: _490  and  _491
REMARK  204  A    between atoms: _490  and  _493
REMARK  205  A    between atoms: _493  and  _494
REMARK  206  A    between atoms: _498  and  _499
REMARK  207  A    between atoms: _504  and  _506
REMARK  208  A    between atoms: _506  and  _507
REMARK  209  A    between atoms: _506  and  _509
REMARK  210  A    between atoms: _509  and  _510
REMARK  211  A    between atoms: _514  and  _515
REMARK  212  A    between atoms: _520  and  _522
REMARK  213  A    between atoms: _522  and  _523
REMARK  214  A    between atoms: _522  and  _525
REMARK  215  A    between atoms: _525  and  _526
REMARK  216  A    between atoms: _532  and  _534
REMARK  217  A    between atoms: _534  and  _535
REMARK  218  A    between atoms: _534  and  _537
REMARK  219  A    between atoms: _537  and  _538
REMARK  220  A    between atoms: _543  and  _545
REMARK  221  A    between atoms: _545  and  _546
REMARK  222  A    between atoms: _545  and  _548
REMARK  223  A    between atoms: _551  and  _553
REMARK  224  A    between atoms: _553  and  _554
REMARK  225  A    between atoms: _553  and  _556
REMARK  226  A    between atoms: _556  and  _557
REMARK  227  A    between atoms: _560  and  _562
REMARK  228  A    between atoms: _562  and  _563
REMARK  229  A    between atoms: _565  and  _567
REMARK  230  A    between atoms: _567  and  _568
REMARK  231  A    between atoms: _567  and  _570
REMARK  232  A    between atoms: _570  and  _571
REMARK  233  A    between atoms: _571  and  _572
REMARK  234  A    between atoms: _572  and  _573
REMARK  235  A    between atoms: _582  and  _584
REMARK  236  A    between atoms: _584  and  _585
REMARK  237  A    between atoms: _584  and  _587
REMARK  238  A    between atoms: _587  and  _588
REMARK                            x       y       z     vdW  Elec       q    Type
REMARK                         _______ _______ _______ _____ _____    ______ ____
ROOT
ATOM      1  O   HOH     1      24.318  30.943  13.878  0.00  0.00    +0.000 OA
ENDROOT
TORSDOF 0
REMARK  Name = ../refined-set-2016/1msn/1msn_pocket.pdb
REMARK  238 active torsions:
REMARK  status: ('A' for Active; 'I' for Inactive)
REMARK    1  A    between atoms: _1  and  _3
REMARK    2  A    between atoms: _3  and  _4
REMARK    3  A    between atoms: _3  and  _6
REMARK    4  A    between atoms: _6  and  _7
REMARK    5  A    between atoms: _7  and  _8
REMARK    6  A    between atoms: _8  and  _9
REMARK    7  A    between atoms: _18  and  _20
REMARK    8  A    between atoms: _20  and  _21
REMARK    9  A    between atoms: _20  and  _23
REMARK   10  A    between atoms: _23  and  _24
REMARK   11  A    between atoms: _27  and  _29
REMARK   12  A    between atoms: _29  and  _30
REMARK   13  A    between atoms: _29  and  _32
REMARK   14  A    between atoms: _32  and  _33
REMARK   15  A    between atoms: _36  and  _38
REMARK   16  A    between atoms: _38  and  _39
REMARK   17  A    between atoms: _38  and  _41
REMARK   18  A    between atoms: _41  and  _42
REMARK   19  A    between atoms: _45  and  _47
REMARK   20  A    between atoms: _47  and  _48
REMARK   21  A    between atoms: _47  and  _50
REMARK   22  A    between atoms: _50  and  _51
REMARK   23  A    between atoms: _54  and  _56
REMARK   24  A    between atoms: _56  and  _57
REMARK   25  A    between atoms: _59  and  _61
REMARK   26  A    between atoms: _61  and  _62
REMARK   27  A    between atoms: _65  and  _67
REMARK   28  A    between atoms: _67  and  _68
REMARK   29  A    between atoms: _67  and  _70
REMARK   30  A    between atoms: _70  and  _71
REMARK   31  A    between atoms: _74  and  _76
REMARK   32  A    between atoms: _76  and  _77
REMARK   33  A    between atoms: _76  and  _79
REMARK   34  A    between atoms: _79  and  _80
REMARK   35  A    between atoms: _83  and  _85
REMARK   36  A    between atoms: _85  and  _86
REMARK   37  A    between atoms: _85  and  _88
REMARK   38  A    between atoms: _88  and  _89
REMARK   39  A    between atoms: _92  and  _94
REMARK   40  A    between atoms: _94  and  _95
REMARK   41  A    between atoms: _94  and  _97
REMARK   42  A    between atoms: _100  and  _102
REMARK   43  A    between atoms: _102  and  _103
REMARK   44  A    between atoms: _102  and  _105
REMARK   45  A    between atoms: _105  and  _106
REMARK   46  A    between atoms: _109  and  _111
REMARK   47  A    between atoms: _111  and  _112
REMARK   48  A    between atoms: _111  and  _114
REMARK   49  A    between atoms: _114  and  _115
REMARK   50  A    between atoms: _115  and  _116
REMARK   51  A    between atoms: _116  and  _117
REMARK   52  A    between atoms: _117  and  _118
REMARK   53  A    between atoms: _122  and  _124
REMARK   54  A    between atoms: _124  and  _125
REMARK   55  A    between atoms: _124  and  _127
REMARK   56  A    between atoms: _127  and  _128
REMARK   57  A    between atoms: _128  and  _129
REMARK   58  A    between atoms: _131  and  _133
REMARK   59  A    between atoms: _133  and  _134
REMARK   60  A    between atoms: _133  and  _136
REMARK   61  A    between atoms: _136  and  _137
REMARK   62  A    between atoms: _140  and  _142
REMARK   63  A    between atoms: _142  and  _143
REMARK   64  A    between atoms: _145  and  _147
REMARK   65  A    between atoms: _147  and  _148
REMARK   66  A    between atoms: _150  and  _152
REMARK   67  A    between atoms: _152  and  _153
REMARK   68  A    between atoms: _152  and  _155
REMARK   69  A    between atoms: _155  and  _156
REMARK   70  A    between atoms: _159  and  _161
REMARK   71  A    between atoms: _161  and  _162
REMARK   72  A    between atoms: _164  and  _166
REMARK   73  A    between atoms: _166  and  _167
REMARK   74  A    between atoms: _169  and  _171
REMARK   75  A    between atoms: _171  and  _172
REMARK   76  A    between atoms: _171  and  _174
REMARK   77  A    between atoms: _174  and  _175
REMARK   78  A    between atoms: _181  and  _183
REMARK   79  A    between atoms: _183  and  _184
REMARK   80  A    between atoms: _183  and  _186
REMARK   81  A    between atoms: _186  and  _187
REMARK   82  A    between atoms: _190  and  _192
REMARK   83  A    between atoms: _192  and  _193
REMARK   84  A    between atoms: _192  and  _195
REMARK   85  A    between atoms: _198  and  _200
REMARK   86  A    between atoms: _200  and  _201
REMARK   87  A    between atoms: _200  and  _203
REMARK   88  A    between atoms: _203  and  _204
REMARK   89  A    between atoms: _208  and  _209
REMARK   90  A    between atoms: _214  and  _216
REMARK   91  A    between atoms: _216  and  _217
REMARK   92  A    between atoms: _216  and  _219
REMARK   93  A    between atoms: _219  and  _220
REMARK   94  A    between atoms: _224  and  _225
REMARK   95  A    between atoms: _230  and  _232
REMARK   96  A    between atoms: _232  and  _233
REMARK   97  A    between atoms: _232  and  _235
REMARK   98  A    between atoms: _235  and  _236
REMARK   99  A    between atoms: _242  and  _244
REMARK  100  A    between atoms: _244  and  _245
REMARK  101  A    between atoms: _244  and  _247
REMARK  102  A    between atoms: _247  and  _248
REMARK  103  A    between atoms: _253  and  _255
REMARK  104  A    between atoms: _255  and  _256
REMARK  105  A    between atoms: _255  and  _258
REMARK  106  A    between atoms: _261  and  _263
REMARK  107  A    between atoms: _263  and  _264
REMARK  108  A    between atoms: _263  and  _266
REMARK  109  A    between atoms: _266  and  _267
REMARK  110  A    between atoms: _270  and  _272
REMARK  111  A    between atoms: _272  and  _273
REMARK  112  A    between atoms: _275  and  _277
REMARK  113  A    between atoms: _277  and  _278
REMARK  114  A    between atoms: _277  and  _280
REMARK  115  A    between atoms: _280  and  _281
REMARK  116  A    between atoms: _281  and  _282
REMARK  117  A    between atoms: _282  and  _283
REMARK  118  A    between atoms: _292  and  _294
REMARK  119  A    between atoms: _294  and  _295
REMARK  120  A    between atoms: _294  and  _297
REMARK  121  A    between atoms: _297  and  _298
REMARK  122  A    between atoms: _303  and  _305
REMARK  123  A    between atoms: _305  and  _306
REMARK  124  A    between atoms: _305  and  _308
REMARK  125  A    between atoms: _308  and  _309
REMARK  126  A    between atoms: _309  and  _310
REMARK  127  A    between atoms: _310  and  _311
REMARK  128  A    between atoms: _320  and  _322
REMARK  129  A    between atoms: _322  and  _323
REMARK  130  A    between atoms: _322  and  _325
REMARK  131  A    between atoms: _325  and  _326
REMARK  132  A    between atoms: _329  and  _331
REMARK  133  A    between atoms: _331  and  _332
REMARK  134  A    between atoms: _331  and  _334
REMARK  135  A    between atoms: _334  and  _335
REMARK  136  A    between atoms: _338  and  _340
REMARK  137  A    between atoms: _340  and  _341
REMARK  138  A    between atoms: _340  and  _343
REMARK  139  A    between atoms: _343  and  _344
REMARK  140  A    between atoms: _347  and  _349
REMARK  141  A    between atoms: _349  and  _350
REMARK  142  A    between atoms: _349  and  _352
REMARK  143  A    between atoms: _352  and  _353
REMARK  144  A    between atoms: _356  and  _358
REMARK  145  A    between atoms: _358  and  _359
REMARK  146  A    between atoms: _358  and  _361
REMARK  147  A    between atoms: _361  and  _362
REMARK  148  A    between atoms: _365  and  _367
REMARK  149  A    between atoms: _367  and  _368
REMARK  150  A    between atoms: _370  and  _372
REMARK  151  A    between atoms: _372  and  _373
REMARK  152  A    between atoms: _376  and  _378
REMARK  153  A    between atoms: _378  and  _379
REMARK  154  A    between atoms: _378  and  _381
REMARK  155  A    between atoms: _381  and  _382
REMARK  156  A    between atoms: _385  and  _387
REMARK  157  A    between atoms: _387  and  _388
REMARK  158  A    between atoms: _387  and  _390
REMARK  159  A    between atoms: _390  and  _391
REMARK  160  A    between atoms: _394  and  _396
REMARK  161  A    between atoms: _396  and  _397
REMARK  162  A    between atoms: _396  and  _399
REMARK  163  A    between atoms: _399  and  _400
REMARK  164  A    between atoms: _403  and  _405
REMARK  165  A    between atoms: _405  and  _406
REMARK  166  A    between atoms: _405  and  _408
REMARK  167  A    between atoms: _411  and  _413
REMARK  168  A    between atoms: _413  and  _414
REMARK  169  A    between atoms: _413  and  _416
REMARK  170  A    between atoms: _416  and  _417
REMARK  171  A    between atoms: _417  and  _418
REMARK  172  A    between atoms: _418  and  _419
REMARK  173  A    between atoms: _419  and  _420
REMARK  174  A    between atoms: _424  and  _426
REMARK  175  A    between atoms: _426  and  _427
REMARK  176  A    between atoms: _426  and  _429
REMARK  177  A    between atoms: _429  and  _430
REMARK  178  A    between atoms: _430  and  _431
REMARK  179  A    between atoms: _433  and  _435
REMARK  180  A    between atoms: _435  and  _436
REMARK  181  A    between atoms: _435  and  _438
REMARK  182  A    between atoms: _438  and  _439
REMARK  183  A    between atoms: _442  and  _444
REMARK  184  A    between atoms: _444  and  _445
REMARK  185  A    between atoms: _447  and  _449
REMARK  186  A    between atoms: _449  and  _450
REMARK  187  A    between atoms: _452  and  _454
REMARK  188  A    between atoms: _454  and  _455
REMARK  189  A    between atoms: _454  and  _457
REMARK  190  A    between atoms: _457  and  _458
REMARK  191  A    between atoms: _461  and  _463
REMARK  192  A    between atoms: _463  and  _464
REMARK  193  A    between atoms: _466  and  _468
REMARK  194  A    between atoms: _468  and  _469
REMARK  195  A    between atoms: _471  and  _473
REMARK  196  A    between atoms: _473  and  _474
REMARK  197  A    between atoms: _473  and  _476
REMARK  198  A    between atoms: _476  and  _477
REMARK  199  A    between atoms: _480  and  _482
REMARK  200  A    between atoms: _482  and  _483
REMARK  201  A    between atoms: _482  and  _485
REMARK  202  A    between atoms: _488  and  _490
REMARK  203  A    between atoms: _490  and  _491
REMARK  204  A    between atoms: _490  and  _493
REMARK  205  A    between atoms: _493  and  _494
REMARK  206  A    between atoms: _498  and  _499
REMARK  207  A    between atoms: _504  and  _506
REMARK  208  A    between atoms: _506  and  _507
REMARK  209  A    between atoms: _506  and  _509
REMARK  210  A    between atoms: _509  and  _510
REMARK  211  A    between atoms: _514  and  _515
REMARK  212  A    between atoms: _520  and  _522
REMARK  213  A    between atoms: _522  and  _523
REMARK  214  A    between atoms: _522  and  _525
REMARK  215  A    between atoms: _525  and  _526
REMARK  216  A    between atoms: _532  and  _534
REMARK  217  A    between atoms: _534  and  _535
REMARK  218  A    between atoms: _534  and  _537
REMARK  219  A    between atoms: _537  and  _538
REMARK  220  A    between atoms: _543  and  _545
REMARK  221  A    between atoms: _545  and  _546
REMARK  222  A    between atoms: _545  and  _548
REMARK  223  A    between atoms: _551  and  _553
REMARK  224  A    between atoms: _553  and  _554
REMARK  225  A    between atoms: _553  and  _556
REMARK  226  A    between atoms: _556  and  _557
REMARK  227  A    between atoms: _560  and  _562
REMARK  228  A    between atoms: _562  and  _563
REMARK  229  A    between atoms: _565  and  _567
REMARK  230  A    between atoms: _567  and  _568
REMARK  231  A    between atoms: _567  and  _570
REMARK  232  A    between atoms: _570  and  _571
REMARK  233  A    between atoms: _571  and  _572
REMARK  234  A    between atoms: _572  and  _573
REMARK  235  A    between atoms: _582  and  _584
REMARK  236  A    between atoms: _584  and  _585
REMARK  237  A    between atoms: _584  and  _587
REMARK  238  A    between atoms: _587  and  _588
REMARK                            x       y       z     vdW  Elec       q    Type
REMARK                         _______ _______ _______ _____ _____    ______ ____
ROOT
ATOM      1  O   HOH     1      25.552  34.042  11.878  0.00  0.00    +0.000 OA
ENDROOT
TORSDOF 0
REMARK  Name = ../refined-set-2016/1msn/1msn_pocket.pdb
REMARK  238 active torsions:
REMARK  status: ('A' for Active; 'I' for Inactive)
REMARK    1  A    between atoms: _1  and  _3
REMARK    2  A    between atoms: _3  and  _4
REMARK    3  A    between atoms: _3  and  _6
REMARK    4  A    between atoms: _6  and  _7
REMARK    5  A    between atoms: _7  and  _8
REMARK    6  A    between atoms: _8  and  _9
REMARK    7  A    between atoms: _18  and  _20
REMARK    8  A    between atoms: _20  and  _21
REMARK    9  A    between atoms: _20  and  _23
REMARK   10  A    between atoms: _23  and  _24
REMARK   11  A    between atoms: _27  and  _29
REMARK   12  A    between atoms: _29  and  _30
REMARK   13  A    between atoms: _29  and  _32
REMARK   14  A    between atoms: _32  and  _33
REMARK   15  A    between atoms: _36  and  _38
REMARK   16  A    between atoms: _38  and  _39
REMARK   17  A    between atoms: _38  and  _41
REMARK   18  A    between atoms: _41  and  _42
REMARK   19  A    between atoms: _45  and  _47
REMARK   20  A    between atoms: _47  and  _48
REMARK   21  A    between atoms: _47  and  _50
REMARK   22  A    between atoms: _50  and  _51
REMARK   23  A    between atoms: _54  and  _56
REMARK   24  A    between atoms: _56  and  _57
REMARK   25  A    between atoms: _59  and  _61
REMARK   26  A    between atoms: _61  and  _62
REMARK   27  A    between atoms: _65  and  _67
REMARK   28  A    between atoms: _67  and  _68
REMARK   29  A    between atoms: _67  and  _70
REMARK   30  A    between atoms: _70  and  _71
REMARK   31  A    between atoms: _74  and  _76
REMARK   32  A    between atoms: _76  and  _77
REMARK   33  A    between atoms: _76  and  _79
REMARK   34  A    between atoms: _79  and  _80
REMARK   35  A    between atoms: _83  and  _85
REMARK   36  A    between atoms: _85  and  _86
REMARK   37  A    between atoms: _85  and  _88
REMARK   38  A    between atoms: _88  and  _89
REMARK   39  A    between atoms: _92  and  _94
REMARK   40  A    between atoms: _94  and  _95
REMARK   41  A    between atoms: _94  and  _97
REMARK   42  A    between atoms: _100  and  _102
REMARK   43  A    between atoms: _102  and  _103
REMARK   44  A    between atoms: _102  and  _105
REMARK   45  A    between atoms: _105  and  _106
REMARK   46  A    between atoms: _109  and  _111
REMARK   47  A    between atoms: _111  and  _112
REMARK   48  A    between atoms: _111  and  _114
REMARK   49  A    between atoms: _114  and  _115
REMARK   50  A    between atoms: _115  and  _116
REMARK   51  A    between atoms: _116  and  _117
REMARK   52  A    between atoms: _117  and  _118
REMARK   53  A    between atoms: _122  and  _124
REMARK   54  A    between atoms: _124  and  _125
REMARK   55  A    between atoms: _124  and  _127
REMARK   56  A    between atoms: _127  and  _128
REMARK   57  A    between atoms: _128  and  _129
REMARK   58  A    between atoms: _131  and  _133
REMARK   59  A    between atoms: _133  and  _134
REMARK   60  A    between atoms: _133  and  _136
REMARK   61  A    between atoms: _136  and  _137
REMARK   62  A    between atoms: _140  and  _142
REMARK   63  A    between atoms: _142  and  _143
REMARK   64  A    between atoms: _145  and  _147
REMARK   65  A    between atoms: _147  and  _148
REMARK   66  A    between atoms: _150  and  _152
REMARK   67  A    between atoms: _152  and  _153
REMARK   68  A    between atoms: _152  and  _155
REMARK   69  A    between atoms: _155  and  _156
REMARK   70  A    between atoms: _159  and  _161
REMARK   71  A    between atoms: _161  and  _162
REMARK   72  A    between atoms: _164  and  _166
REMARK   73  A    between atoms: _166  and  _167
REMARK   74  A    between atoms: _169  and  _171
REMARK   75  A    between atoms: _171  and  _172
REMARK   76  A    between atoms: _171  and  _174
REMARK   77  A    between atoms: _174  and  _175
REMARK   78  A    between atoms: _181  and  _183
REMARK   79  A    between atoms: _183  and  _184
REMARK   80  A    between atoms: _183  and  _186
REMARK   81  A    between atoms: _186  and  _187
REMARK   82  A    between atoms: _190  and  _192
REMARK   83  A    between atoms: _192  and  _193
REMARK   84  A    between atoms: _192  and  _195
REMARK   85  A    between atoms: _198  and  _200
REMARK   86  A    between atoms: _200  and  _201
REMARK   87  A    between atoms: _200  and  _203
REMARK   88  A    between atoms: _203  and  _204
REMARK   89  A    between atoms: _208  and  _209
REMARK   90  A    between atoms: _214  and  _216
REMARK   91  A    between atoms: _216  and  _217
REMARK   92  A    between atoms: _216  and  _219
REMARK   93  A    between atoms: _219  and  _220
REMARK   94  A    between atoms: _224  and  _225
REMARK   95  A    between atoms: _230  and  _232
REMARK   96  A    between atoms: _232  and  _233
REMARK   97  A    between atoms: _232  and  _235
REMARK   98  A    between atoms: _235  and  _236
REMARK   99  A    between atoms: _242  and  _244
REMARK  100  A    between atoms: _244  and  _245
REMARK  101  A    between atoms: _244  and  _247
REMARK  102  A    between atoms: _247  and  _248
REMARK  103  A    between atoms: _253  and  _255
REMARK  104  A    between atoms: _255  and  _256
REMARK  105  A    between atoms: _255  and  _258
REMARK  106  A    between atoms: _261  and  _263
REMARK  107  A    between atoms: _263  and  _264
REMARK  108  A    between atoms: _263  and  _266
REMARK  109  A    between atoms: _266  and  _267
REMARK  110  A    between atoms: _270  and  _272
REMARK  111  A    between atoms: _272  and  _273
REMARK  112  A    between atoms: _275  and  _277
REMARK  113  A    between atoms: _277  and  _278
REMARK  114  A    between atoms: _277  and  _280
REMARK  115  A    between atoms: _280  and  _281
REMARK  116  A    between atoms: _281  and  _282
REMARK  117  A    between atoms: _282  and  _283
REMARK  118  A    between atoms: _292  and  _294
REMARK  119  A    between atoms: _294  and  _295
REMARK  120  A    between atoms: _294  and  _297
REMARK  121  A    between atoms: _297  and  _298
REMARK  122  A    between atoms: _303  and  _305
REMARK  123  A    between atoms: _305  and  _306
REMARK  124  A    between atoms: _305  and  _308
REMARK  125  A    between atoms: _308  and  _309
REMARK  126  A    between atoms: _309  and  _310
REMARK  127  A    between atoms: _310  and  _311
REMARK  128  A    between atoms: _320  and  _322
REMARK  129  A    between atoms: _322  and  _323
REMARK  130  A    between atoms: _322  and  _325
REMARK  131  A    between atoms: _325  and  _326
REMARK  132  A    between atoms: _329  and  _331
REMARK  133  A    between atoms: _331  and  _332
REMARK  134  A    between atoms: _331  and  _334
REMARK  135  A    between atoms: _334  and  _335
REMARK  136  A    between atoms: _338  and  _340
REMARK  137  A    between atoms: _340  and  _341
REMARK  138  A    between atoms: _340  and  _343
REMARK  139  A    between atoms: _343  and  _344
REMARK  140  A    between atoms: _347  and  _349
REMARK  141  A    between atoms: _349  and  _350
REMARK  142  A    between atoms: _349  and  _352
REMARK  143  A    between atoms: _352  and  _353
REMARK  144  A    between atoms: _356  and  _358
REMARK  145  A    between atoms: _358  and  _359
REMARK  146  A    between atoms: _358  and  _361
REMARK  147  A    between atoms: _361  and  _362
REMARK  148  A    between atoms: _365  and  _367
REMARK  149  A    between atoms: _367  and  _368
REMARK  150  A    between atoms: _370  and  _372
REMARK  151  A    between atoms: _372  and  _373
REMARK  152  A    between atoms: _376  and  _378
REMARK  153  A    between atoms: _378  and  _379
REMARK  154  A    between atoms: _378  and  _381
REMARK  155  A    between atoms: _381  and  _382
REMARK  156  A    between atoms: _385  and  _387
REMARK  157  A    between atoms: _387  and  _388
REMARK  158  A    between atoms: _387  and  _390
REMARK  159  A    between atoms: _390  and  _391
REMARK  160  A    between atoms: _394  and  _396
REMARK  161  A    between atoms: _396  and  _397
REMARK  162  A    between atoms: _396  and  _399
REMARK  163  A    between atoms: _399  and  _400
REMARK  164  A    between atoms: _403  and  _405
REMARK  165  A    between atoms: _405  and  _406
REMARK  166  A    between atoms: _405  and  _408
REMARK  167  A    between atoms: _411  and  _413
REMARK  168  A    between atoms: _413  and  _414
REMARK  169  A    between atoms: _413  and  _416
REMARK  170  A    between atoms: _416  and  _417
REMARK  171  A    between atoms: _417  and  _418
REMARK  172  A    between atoms: _418  and  _419
REMARK  173  A    between atoms: _419  and  _420
REMARK  174  A    between atoms: _424  and  _426
REMARK  175  A    between atoms: _426  and  _427
REMARK  176  A    between atoms: _426  and  _429
REMARK  177  A    between atoms: _429  and  _430
REMARK  178  A    between atoms: _430  and  _431
REMARK  179  A    between atoms: _433  and  _435
REMARK  180  A    between atoms: _435  and  _436
REMARK  181  A    between atoms: _435  and  _438
REMARK  182  A    between atoms: _438  and  _439
REMARK  183  A    between atoms: _442  and  _444
REMARK  184  A    between atoms: _444  and  _445
REMARK  185  A    between atoms: _447  and  _449
REMARK  186  A    between atoms: _449  and  _450
REMARK  187  A    between atoms: _452  and  _454
REMARK  188  A    between atoms: _454  and  _455
REMARK  189  A    between atoms: _454  and  _457
REMARK  190  A    between atoms: _457  and  _458
REMARK  191  A    between atoms: _461  and  _463
REMARK  192  A    between atoms: _463  and  _464
REMARK  193  A    between atoms: _466  and  _468
REMARK  194  A    between atoms: _468  and  _469
REMARK  195  A    between atoms: _471  and  _473
REMARK  196  A    between atoms: _473  and  _474
REMARK  197  A    between atoms: _473  and  _476
REMARK  198  A    between atoms: _476  and  _477
REMARK  199  A    between atoms: _480  and  _482
REMARK  200  A    between atoms: _482  and  _483
REMARK  201  A    between atoms: _482  and  _485
REMARK  202  A    between atoms: _488  and  _490
REMARK  203  A    between atoms: _490  and  _491
REMARK  204  A    between atoms: _490  and  _493
REMARK  205  A    between atoms: _493  and  _494
REMARK  206  A    between atoms: _498  and  _499
REMARK  207  A    between atoms: _504  and  _506
REMARK  208  A    between atoms: _506  and  _507
REMARK  209  A    between atoms: _506  and  _509
REMARK  210  A    between atoms: _509  and  _510
REMARK  211  A    between atoms: _514  and  _515
REMARK  212  A    between atoms: _520  and  _522
REMARK  213  A    between atoms: _522  and  _523
REMARK  214  A    between atoms: _522  and  _525
REMARK  215  A    between atoms: _525  and  _526
REMARK  216  A    between atoms: _532  and  _534
REMARK  217  A    between atoms: _534  and  _535
REMARK  218  A    between atoms: _534  and  _537
REMARK  219  A    between atoms: _537  and  _538
REMARK  220  A    between atoms: _543  and  _545
REMARK  221  A    between atoms: _545  and  _546
REMARK  222  A    between atoms: _545  and  _548
REMARK  223  A    between atoms: _551  and  _553
REMARK  224  A    between atoms: _553  and  _554
REMARK  225  A    between atoms: _553  and  _556
REMARK  226  A    between atoms: _556  and  _557
REMARK  227  A    between atoms: _560  and  _562
REMARK  228  A    between atoms: _562  and  _563
REMARK  229  A    between atoms: _565  and  _567
REMARK  230  A    between atoms: _567  and  _568
REMARK  231  A    between atoms: _567  and  _570
REMARK  232  A    between atoms: _570  and  _571
REMARK  233  A    between atoms: _571  and  _572
REMARK  234  A    between atoms: _572  and  _573
REMARK  235  A    between atoms: _582  and  _584
REMARK  236  A    between atoms: _584  and  _585
REMARK  237  A    between atoms: _584  and  _587
REMARK  238  A    between atoms: _587  and  _588
REMARK                            x       y       z     vdW  Elec       q    Type
REMARK                         _______ _______ _______ _____ _____    ______ ____
ROOT
ATOM      1  O   HOH     1      25.208  30.452  16.214  0.00  0.00    +0.000 OA
ENDROOT
TORSDOF 0
REMARK  Name = ../refined-set-2016/1msn/1msn_pocket.pdb
REMARK  238 active torsions:
REMARK  status: ('A' for Active; 'I' for Inactive)
REMARK    1  A    between atoms: _1  and  _3
REMARK    2  A    between atoms: _3  and  _4
REMARK    3  A    between atoms: _3  and  _6
REMARK    4  A    between atoms: _6  and  _7
REMARK    5  A    between atoms: _7  and  _8
REMARK    6  A    between atoms: _8  and  _9
REMARK    7  A    between atoms: _18  and  _20
REMARK    8  A    between atoms: _20  and  _21
REMARK    9  A    between atoms: _20  and  _23
REMARK   10  A    between atoms: _23  and  _24
REMARK   11  A    between atoms: _27  and  _29
REMARK   12  A    between atoms: _29  and  _30
REMARK   13  A    between atoms: _29  and  _32
REMARK   14  A    between atoms: _32  and  _33
REMARK   15  A    between atoms: _36  and  _38
REMARK   16  A    between atoms: _38  and  _39
REMARK   17  A    between atoms: _38  and  _41
REMARK   18  A    between atoms: _41  and  _42
REMARK   19  A    between atoms: _45  and  _47
REMARK   20  A    between atoms: _47  and  _48
REMARK   21  A    between atoms: _47  and  _50
REMARK   22  A    between atoms: _50  and  _51
REMARK   23  A    between atoms: _54  and  _56
REMARK   24  A    between atoms: _56  and  _57
REMARK   25  A    between atoms: _59  and  _61
REMARK   26  A    between atoms: _61  and  _62
REMARK   27  A    between atoms: _65  and  _67
REMARK   28  A    between atoms: _67  and  _68
REMARK   29  A    between atoms: _67  and  _70
REMARK   30  A    between atoms: _70  and  _71
REMARK   31  A    between atoms: _74  and  _76
REMARK   32  A    between atoms: _76  and  _77
REMARK   33  A    between atoms: _76  and  _79
REMARK   34  A    between atoms: _79  and  _80
REMARK   35  A    between atoms: _83  and  _85
REMARK   36  A    between atoms: _85  and  _86
REMARK   37  A    between atoms: _85  and  _88
REMARK   38  A    between atoms: _88  and  _89
REMARK   39  A    between atoms: _92  and  _94
REMARK   40  A    between atoms: _94  and  _95
REMARK   41  A    between atoms: _94  and  _97
REMARK   42  A    between atoms: _100  and  _102
REMARK   43  A    between atoms: _102  and  _103
REMARK   44  A    between atoms: _102  and  _105
REMARK   45  A    between atoms: _105  and  _106
REMARK   46  A    between atoms: _109  and  _111
REMARK   47  A    between atoms: _111  and  _112
REMARK   48  A    between atoms: _111  and  _114
REMARK   49  A    between atoms: _114  and  _115
REMARK   50  A    between atoms: _115  and  _116
REMARK   51  A    between atoms: _116  and  _117
REMARK   52  A    between atoms: _117  and  _118
REMARK   53  A    between atoms: _122  and  _124
REMARK   54  A    between atoms: _124  and  _125
REMARK   55  A    between atoms: _124  and  _127
REMARK   56  A    between atoms: _127  and  _128
REMARK   57  A    between atoms: _128  and  _129
REMARK   58  A    between atoms: _131  and  _133
REMARK   59  A    between atoms: _133  and  _134
REMARK   60  A    between atoms: _133  and  _136
REMARK   61  A    between atoms: _136  and  _137
REMARK   62  A    between atoms: _140  and  _142
REMARK   63  A    between atoms: _142  and  _143
REMARK   64  A    between atoms: _145  and  _147
REMARK   65  A    between atoms: _147  and  _148
REMARK   66  A    between atoms: _150  and  _152
REMARK   67  A    between atoms: _152  and  _153
REMARK   68  A    between atoms: _152  and  _155
REMARK   69  A    between atoms: _155  and  _156
REMARK   70  A    between atoms: _159  and  _161
REMARK   71  A    between atoms: _161  and  _162
REMARK   72  A    between atoms: _164  and  _166
REMARK   73  A    between atoms: _166  and  _167
REMARK   74  A    between atoms: _169  and  _171
REMARK   75  A    between atoms: _171  and  _172
REMARK   76  A    between atoms: _171  and  _174
REMARK   77  A    between atoms: _174  and  _175
REMARK   78  A    between atoms: _181  and  _183
REMARK   79  A    between atoms: _183  and  _184
REMARK   80  A    between atoms: _183  and  _186
REMARK   81  A    between atoms: _186  and  _187
REMARK   82  A    between atoms: _190  and  _192
REMARK   83  A    between atoms: _192  and  _193
REMARK   84  A    between atoms: _192  and  _195
REMARK   85  A    between atoms: _198  and  _200
REMARK   86  A    between atoms: _200  and  _201
REMARK   87  A    between atoms: _200  and  _203
REMARK   88  A    between atoms: _203  and  _204
REMARK   89  A    between atoms: _208  and  _209
REMARK   90  A    between atoms: _214  and  _216
REMARK   91  A    between atoms: _216  and  _217
REMARK   92  A    between atoms: _216  and  _219
REMARK   93  A    between atoms: _219  and  _220
REMARK   94  A    between atoms: _224  and  _225
REMARK   95  A    between atoms: _230  and  _232
REMARK   96  A    between atoms: _232  and  _233
REMARK   97  A    between atoms: _232  and  _235
REMARK   98  A    between atoms: _235  and  _236
REMARK   99  A    between atoms: _242  and  _244
REMARK  100  A    between atoms: _244  and  _245
REMARK  101  A    between atoms: _244  and  _247
REMARK  102  A    between atoms: _247  and  _248
REMARK  103  A    between atoms: _253  and  _255
REMARK  104  A    between atoms: _255  and  _256
REMARK  105  A    between atoms: _255  and  _258
REMARK  106  A    between atoms: _261  and  _263
REMARK  107  A    between atoms: _263  and  _264
REMARK  108  A    between atoms: _263  and  _266
REMARK  109  A    between atoms: _266  and  _267
REMARK  110  A    between atoms: _270  and  _272
REMARK  111  A    between atoms: _272  and  _273
REMARK  112  A    between atoms: _275  and  _277
REMARK  113  A    between atoms: _277  and  _278
REMARK  114  A    between atoms: _277  and  _280
REMARK  115  A    between atoms: _280  and  _281
REMARK  116  A    between atoms: _281  and  _282
REMARK  117  A    between atoms: _282  and  _283
REMARK  118  A    between atoms: _292  and  _294
REMARK  119  A    between atoms: _294  and  _295
REMARK  120  A    between atoms: _294  and  _297
REMARK  121  A    between atoms: _297  and  _298
REMARK  122  A    between atoms: _303  and  _305
REMARK  123  A    between atoms: _305  and  _306
REMARK  124  A    between atoms: _305  and  _308
REMARK  125  A    between atoms: _308  and  _309
REMARK  126  A    between atoms: _309  and  _310
REMARK  127  A    between atoms: _310  and  _311
REMARK  128  A    between atoms: _320  and  _322
REMARK  129  A    between atoms: _322  and  _323
REMARK  130  A    between atoms: _322  and  _325
REMARK  131  A    between atoms: _325  and  _326
REMARK  132  A    between atoms: _329  and  _331
REMARK  133  A    between atoms: _331  and  _332
REMARK  134  A    between atoms: _331  and  _334
REMARK  135  A    between atoms: _334  and  _335
REMARK  136  A    between atoms: _338  and  _340
REMARK  137  A    between atoms: _340  and  _341
REMARK  138  A    between atoms: _340  and  _343
REMARK  139  A    between atoms: _343  and  _344
REMARK  140  A    between atoms: _347  and  _349
REMARK  141  A    between atoms: _349  and  _350
REMARK  142  A    between atoms: _349  and  _352
REMARK  143  A    between atoms: _352  and  _353
REMARK  144  A    between atoms: _356  and  _358
REMARK  145  A    between atoms: _358  and  _359
REMARK  146  A    between atoms: _358  and  _361
REMARK  147  A    between atoms: _361  and  _362
REMARK  148  A    between atoms: _365  and  _367
REMARK  149  A    between atoms: _367  and  _368
REMARK  150  A    between atoms: _370  and  _372
REMARK  151  A    between atoms: _372  and  _373
REMARK  152  A    between atoms: _376  and  _378
REMARK  153  A    between atoms: _378  and  _379
REMARK  154  A    between atoms: _378  and  _381
REMARK  155  A    between atoms: _381  and  _382
REMARK  156  A    between atoms: _385  and  _387
REMARK  157  A    between atoms: _387  and  _388
REMARK  158  A    between atoms: _387  and  _390
REMARK  159  A    between atoms: _390  and  _391
REMARK  160  A    between atoms: _394  and  _396
REMARK  161  A    between atoms: _396  and  _397
REMARK  162  A    between atoms: _396  and  _399
REMARK  163  A    between atoms: _399  and  _400
REMARK  164  A    between atoms: _403  and  _405
REMARK  165  A    between atoms: _405  and  _406
REMARK  166  A    between atoms: _405  and  _408
REMARK  167  A    between atoms: _411  and  _413
REMARK  168  A    between atoms: _413  and  _414
REMARK  169  A    between atoms: _413  and  _416
REMARK  170  A    between atoms: _416  and  _417
REMARK  171  A    between atoms: _417  and  _418
REMARK  172  A    between atoms: _418  and  _419
REMARK  173  A    between atoms: _419  and  _420
REMARK  174  A    between atoms: _424  and  _426
REMARK  175  A    between atoms: _426  and  _427
REMARK  176  A    between atoms: _426  and  _429
REMARK  177  A    between atoms: _429  and  _430
REMARK  178  A    between atoms: _430  and  _431
REMARK  179  A    between atoms: _433  and  _435
REMARK  180  A    between atoms: _435  and  _436
REMARK  181  A    between atoms: _435  and  _438
REMARK  182  A    between atoms: _438  and  _439
REMARK  183  A    between atoms: _442  and  _444
REMARK  184  A    between atoms: _444  and  _445
REMARK  185  A    between atoms: _447  and  _449
REMARK  186  A    between atoms: _449  and  _450
REMARK  187  A    between atoms: _452  and  _454
REMARK  188  A    between atoms: _454  and  _455
REMARK  189  A    between atoms: _454  and  _457
REMARK  190  A    between atoms: _457  and  _458
REMARK  191  A    between atoms: _461  and  _463
REMARK  192  A    between atoms: _463  and  _464
REMARK  193  A    between atoms: _466  and  _468
REMARK  194  A    between atoms: _468  and  _469
REMARK  195  A    between atoms: _471  and  _473
REMARK  196  A    between atoms: _473  and  _474
REMARK  197  A    between atoms: _473  and  _476
REMARK  198  A    between atoms: _476  and  _477
REMARK  199  A    between atoms: _480  and  _482
REMARK  200  A    between atoms: _482  and  _483
REMARK  201  A    between atoms: _482  and  _485
REMARK  202  A    between atoms: _488  and  _490
REMARK  203  A    between atoms: _490  and  _491
REMARK  204  A    between atoms: _490  and  _493
REMARK  205  A    between atoms: _493  and  _494
REMARK  206  A    between atoms: _498  and  _499
REMARK  207  A    between atoms: _504  and  _506
REMARK  208  A    between atoms: _506  and  _507
REMARK  209  A    between atoms: _506  and  _509
REMARK  210  A    between atoms: _509  and  _510
REMARK  211  A    between atoms: _514  and  _515
REMARK  212  A    between atoms: _520  and  _522
REMARK  213  A    between atoms: _522  and  _523
REMARK  214  A    between atoms: _522  and  _525
REMARK  215  A    between atoms: _525  and  _526
REMARK  216  A    between atoms: _532  and  _534
REMARK  217  A    between atoms: _534  and  _535
REMARK  218  A    between atoms: _534  and  _537
REMARK  219  A    between atoms: _537  and  _538
REMARK  220  A    between atoms: _543  and  _545
REMARK  221  A    between atoms: _545  and  _546
REMARK  222  A    between atoms: _545  and  _548
REMARK  223  A    between atoms: _551  and  _553
REMARK  224  A    between atoms: _553  and  _554
REMARK  225  A    between atoms: _553  and  _556
REMARK  226  A    between atoms: _556  and  _557
REMARK  227  A    between atoms: _560  and  _562
REMARK  228  A    between atoms: _562  and  _563
REMARK  229  A    between atoms: _565  and  _567
REMARK  230  A    between atoms: _567  and  _568
REMARK  231  A    between atoms: _567  and  _570
REMARK  232  A    between atoms: _570  and  _571
REMARK  233  A    between atoms: _571  and  _572
REMARK  234  A    between atoms: _572  and  _573
REMARK  235  A    between atoms: _582  and  _584
REMARK  236  A    between atoms: _584  and  _585
REMARK  237  A    between atoms: _584  and  _587
REMARK  238  A    between atoms: _587  and  _588
REMARK                            x       y       z     vdW  Elec       q    Type
REMARK                         _______ _______ _______ _____ _____    ______ ____
ROOT
ATOM      1  O   HOH     1       9.045  16.185  26.585  0.00  0.00    +0.000 OA
ENDROOT
TORSDOF 0
REMARK  Name = ../refined-set-2016/1msn/1msn_pocket.pdb
REMARK  238 active torsions:
REMARK  status: ('A' for Active; 'I' for Inactive)
REMARK    1  A    between atoms: _1  and  _3
REMARK    2  A    between atoms: _3  and  _4
REMARK    3  A    between atoms: _3  and  _6
REMARK    4  A    between atoms: _6  and  _7
REMARK    5  A    between atoms: _7  and  _8
REMARK    6  A    between atoms: _8  and  _9
REMARK    7  A    between atoms: _18  and  _20
REMARK    8  A    between atoms: _20  and  _21
REMARK    9  A    between atoms: _20  and  _23
REMARK   10  A    between atoms: _23  and  _24
REMARK   11  A    between atoms: _27  and  _29
REMARK   12  A    between atoms: _29  and  _30
REMARK   13  A    between atoms: _29  and  _32
REMARK   14  A    between atoms: _32  and  _33
REMARK   15  A    between atoms: _36  and  _38
REMARK   16  A    between atoms: _38  and  _39
REMARK   17  A    between atoms: _38  and  _41
REMARK   18  A    between atoms: _41  and  _42
REMARK   19  A    between atoms: _45  and  _47
REMARK   20  A    between atoms: _47  and  _48
REMARK   21  A    between atoms: _47  and  _50
REMARK   22  A    between atoms: _50  and  _51
REMARK   23  A    between atoms: _54  and  _56
REMARK   24  A    between atoms: _56  and  _57
REMARK   25  A    between atoms: _59  and  _61
REMARK   26  A    between atoms: _61  and  _62
REMARK   27  A    between atoms: _65  and  _67
REMARK   28  A    between atoms: _67  and  _68
REMARK   29  A    between atoms: _67  and  _70
REMARK   30  A    between atoms: _70  and  _71
REMARK   31  A    between atoms: _74  and  _76
REMARK   32  A    between atoms: _76  and  _77
REMARK   33  A    between atoms: _76  and  _79
REMARK   34  A    between atoms: _79  and  _80
REMARK   35  A    between atoms: _83  and  _85
REMARK   36  A    between atoms: _85  and  _86
REMARK   37  A    between atoms: _85  and  _88
REMARK   38  A    between atoms: _88  and  _89
REMARK   39  A    between atoms: _92  and  _94
REMARK   40  A    between atoms: _94  and  _95
REMARK   41  A    between atoms: _94  and  _97
REMARK   42  A    between atoms: _100  and  _102
REMARK   43  A    between atoms: _102  and  _103
REMARK   44  A    between atoms: _102  and  _105
REMARK   45  A    between atoms: _105  and  _106
REMARK   46  A    between atoms: _109  and  _111
REMARK   47  A    between atoms: _111  and  _112
REMARK   48  A    between atoms: _111  and  _114
REMARK   49  A    between atoms: _114  and  _115
REMARK   50  A    between atoms: _115  and  _116
REMARK   51  A    between atoms: _116  and  _117
REMARK   52  A    between atoms: _117  and  _118
REMARK   53  A    between atoms: _122  and  _124
REMARK   54  A    between atoms: _124  and  _125
REMARK   55  A    between atoms: _124  and  _127
REMARK   56  A    between atoms: _127  and  _128
REMARK   57  A    between atoms: _128  and  _129
REMARK   58  A    between atoms: _131  and  _133
REMARK   59  A    between atoms: _133  and  _134
REMARK   60  A    between atoms: _133  and  _136
REMARK   61  A    between atoms: _136  and  _137
REMARK   62  A    between atoms: _140  and  _142
REMARK   63  A    between atoms: _142  and  _143
REMARK   64  A    between atoms: _145  and  _147
REMARK   65  A    between atoms: _147  and  _148
REMARK   66  A    between atoms: _150  and  _152
REMARK   67  A    between atoms: _152  and  _153
REMARK   68  A    between atoms: _152  and  _155
REMARK   69  A    between atoms: _155  and  _156
REMARK   70  A    between atoms: _159  and  _161
REMARK   71  A    between atoms: _161  and  _162
REMARK   72  A    between atoms: _164  and  _166
REMARK   73  A    between atoms: _166  and  _167
REMARK   74  A    between atoms: _169  and  _171
REMARK   75  A    between atoms: _171  and  _172
REMARK   76  A    between atoms: _171  and  _174
REMARK   77  A    between atoms: _174  and  _175
REMARK   78  A    between atoms: _181  and  _183
REMARK   79  A    between atoms: _183  and  _184
REMARK   80  A    between atoms: _183  and  _186
REMARK   81  A    between atoms: _186  and  _187
REMARK   82  A    between atoms: _190  and  _192
REMARK   83  A    between atoms: _192  and  _193
REMARK   84  A    between atoms: _192  and  _195
REMARK   85  A    between atoms: _198  and  _200
REMARK   86  A    between atoms: _200  and  _201
REMARK   87  A    between atoms: _200  and  _203
REMARK   88  A    between atoms: _203  and  _204
REMARK   89  A    between atoms: _208  and  _209
REMARK   90  A    between atoms: _214  and  _216
REMARK   91  A    between atoms: _216  and  _217
REMARK   92  A    between atoms: _216  and  _219
REMARK   93  A    between atoms: _219  and  _220
REMARK   94  A    between atoms: _224  and  _225
REMARK   95  A    between atoms: _230  and  _232
REMARK   96  A    between atoms: _232  and  _233
REMARK   97  A    between atoms: _232  and  _235
REMARK   98  A    between atoms: _235  and  _236
REMARK   99  A    between atoms: _242  and  _244
REMARK  100  A    between atoms: _244  and  _245
REMARK  101  A    between atoms: _244  and  _247
REMARK  102  A    between atoms: _247  and  _248
REMARK  103  A    between atoms: _253  and  _255
REMARK  104  A    between atoms: _255  and  _256
REMARK  105  A    between atoms: _255  and  _258
REMARK  106  A    between atoms: _261  and  _263
REMARK  107  A    between atoms: _263  and  _264
REMARK  108  A    between atoms: _263  and  _266
REMARK  109  A    between atoms: _266  and  _267
REMARK  110  A    between atoms: _270  and  _272
REMARK  111  A    between atoms: _272  and  _273
REMARK  112  A    between atoms: _275  and  _277
REMARK  113  A    between atoms: _277  and  _278
REMARK  114  A    between atoms: _277  and  _280
REMARK  115  A    between atoms: _280  and  _281
REMARK  116  A    between atoms: _281  and  _282
REMARK  117  A    between atoms: _282  and  _283
REMARK  118  A    between atoms: _292  and  _294
REMARK  119  A    between atoms: _294  and  _295
REMARK  120  A    between atoms: _294  and  _297
REMARK  121  A    between atoms: _297  and  _298
REMARK  122  A    between atoms: _303  and  _305
REMARK  123  A    between atoms: _305  and  _306
REMARK  124  A    between atoms: _305  and  _308
REMARK  125  A    between atoms: _308  and  _309
REMARK  126  A    between atoms: _309  and  _310
REMARK  127  A    between atoms: _310  and  _311
REMARK  128  A    between atoms: _320  and  _322
REMARK  129  A    between atoms: _322  and  _323
REMARK  130  A    between atoms: _322  and  _325
REMARK  131  A    between atoms: _325  and  _326
REMARK  132  A    between atoms: _329  and  _331
REMARK  133  A    between atoms: _331  and  _332
REMARK  134  A    between atoms: _331  and  _334
REMARK  135  A    between atoms: _334  and  _335
REMARK  136  A    between atoms: _338  and  _340
REMARK  137  A    between atoms: _340  and  _341
REMARK  138  A    between atoms: _340  and  _343
REMARK  139  A    between atoms: _343  and  _344
REMARK  140  A    between atoms: _347  and  _349
REMARK  141  A    between atoms: _349  and  _350
REMARK  142  A    between atoms: _349  and  _352
REMARK  143  A    between atoms: _352  and  _353
REMARK  144  A    between atoms: _356  and  _358
REMARK  145  A    between atoms: _358  and  _359
REMARK  146  A    between atoms: _358  and  _361
REMARK  147  A    between atoms: _361  and  _362
REMARK  148  A    between atoms: _365  and  _367
REMARK  149  A    between atoms: _367  and  _368
REMARK  150  A    between atoms: _370  and  _372
REMARK  151  A    between atoms: _372  and  _373
REMARK  152  A    between atoms: _376  and  _378
REMARK  153  A    between atoms: _378  and  _379
REMARK  154  A    between atoms: _378  and  _381
REMARK  155  A    between atoms: _381  and  _382
REMARK  156  A    between atoms: _385  and  _387
REMARK  157  A    between atoms: _387  and  _388
REMARK  158  A    between atoms: _387  and  _390
REMARK  159  A    between atoms: _390  and  _391
REMARK  160  A    between atoms: _394  and  _396
REMARK  161  A    between atoms: _396  and  _397
REMARK  162  A    between atoms: _396  and  _399
REMARK  163  A    between atoms: _399  and  _400
REMARK  164  A    between atoms: _403  and  _405
REMARK  165  A    between atoms: _405  and  _406
REMARK  166  A    between atoms: _405  and  _408
REMARK  167  A    between atoms: _411  and  _413
REMARK  168  A    between atoms: _413  and  _414
REMARK  169  A    between atoms: _413  and  _416
REMARK  170  A    between atoms: _416  and  _417
REMARK  171  A    between atoms: _417  and  _418
REMARK  172  A    between atoms: _418  and  _419
REMARK  173  A    between atoms: _419  and  _420
REMARK  174  A    between atoms: _424  and  _426
REMARK  175  A    between atoms: _426  and  _427
REMARK  176  A    between atoms: _426  and  _429
REMARK  177  A    between atoms: _429  and  _430
REMARK  178  A    between atoms: _430  and  _431
REMARK  179  A    between atoms: _433  and  _435
REMARK  180  A    between atoms: _435  and  _436
REMARK  181  A    between atoms: _435  and  _438
REMARK  182  A    between atoms: _438  and  _439
REMARK  183  A    between atoms: _442  and  _444
REMARK  184  A    between atoms: _444  and  _445
REMARK  185  A    between atoms: _447  and  _449
REMARK  186  A    between atoms: _449  and  _450
REMARK  187  A    between atoms: _452  and  _454
REMARK  188  A    between atoms: _454  and  _455
REMARK  189  A    between atoms: _454  and  _457
REMARK  190  A    between atoms: _457  and  _458
REMARK  191  A    between atoms: _461  and  _463
REMARK  192  A    between atoms: _463  and  _464
REMARK  193  A    between atoms: _466  and  _468
REMARK  194  A    between atoms: _468  and  _469
REMARK  195  A    between atoms: _471  and  _473
REMARK  196  A    between atoms: _473  and  _474
REMARK  197  A    between atoms: _473  and  _476
REMARK  198  A    between atoms: _476  and  _477
REMARK  199  A    between atoms: _480  and  _482
REMARK  200  A    between atoms: _482  and  _483
REMARK  201  A    between atoms: _482  and  _485
REMARK  202  A    between atoms: _488  and  _490
REMARK  203  A    between atoms: _490  and  _491
REMARK  204  A    between atoms: _490  and  _493
REMARK  205  A    between atoms: _493  and  _494
REMARK  206  A    between atoms: _498  and  _499
REMARK  207  A    between atoms: _504  and  _506
REMARK  208  A    between atoms: _506  and  _507
REMARK  209  A    between atoms: _506  and  _509
REMARK  210  A    between atoms: _509  and  _510
REMARK  211  A    between atoms: _514  and  _515
REMARK  212  A    between atoms: _520  and  _522
REMARK  213  A    between atoms: _522  and  _523
REMARK  214  A    between atoms: _522  and  _525
REMARK  215  A    between atoms: _525  and  _526
REMARK  216  A    between atoms: _532  and  _534
REMARK  217  A    between atoms: _534  and  _535
REMARK  218  A    between atoms: _534  and  _537
REMARK  219  A    between atoms: _537  and  _538
REMARK  220  A    between atoms: _543  and  _545
REMARK  221  A    between atoms: _545  and  _546
REMARK  222  A    between atoms: _545  and  _548
REMARK  223  A    between atoms: _551  and  _553
REMARK  224  A    between atoms: _553  and  _554
REMARK  225  A    between atoms: _553  and  _556
REMARK  226  A    between atoms: _556  and  _557
REMARK  227  A    between atoms: _560  and  _562
REMARK  228  A    between atoms: _562  and  _563
REMARK  229  A    between atoms: _565  and  _567
REMARK  230  A    between atoms: _567  and  _568
REMARK  231  A    between atoms: _567  and  _570
REMARK  232  A    between atoms: _570  and  _571
REMARK  233  A    between atoms: _571  and  _572
REMARK  234  A    between atoms: _572  and  _573
REMARK  235  A    between atoms: _582  and  _584
REMARK  236  A    between atoms: _584  and  _585
REMARK  237  A    between atoms: _584  and  _587
REMARK  238  A    between atoms: _587  and  _588
REMARK                            x       y       z     vdW  Elec       q    Type
REMARK                         _______ _______ _______ _____ _____    ______ ____
ROOT
ATOM      1  O   HOH     1      17.585  20.843  16.806  0.00  0.00    +0.000 OA
ENDROOT
TORSDOF 0
REMARK  Name = ../refined-set-2016/1msn/1msn_pocket.pdb
REMARK  238 active torsions:
REMARK  status: ('A' for Active; 'I' for Inactive)
REMARK    1  A    between atoms: _1  and  _3
REMARK    2  A    between atoms: _3  and  _4
REMARK    3  A    between atoms: _3  and  _6
REMARK    4  A    between atoms: _6  and  _7
REMARK    5  A    between atoms: _7  and  _8
REMARK    6  A    between atoms: _8  and  _9
REMARK    7  A    between atoms: _18  and  _20
REMARK    8  A    between atoms: _20  and  _21
REMARK    9  A    between atoms: _20  and  _23
REMARK   10  A    between atoms: _23  and  _24
REMARK   11  A    between atoms: _27  and  _29
REMARK   12  A    between atoms: _29  and  _30
REMARK   13  A    between atoms: _29  and  _32
REMARK   14  A    between atoms: _32  and  _33
REMARK   15  A    between atoms: _36  and  _38
REMARK   16  A    between atoms: _38  and  _39
REMARK   17  A    between atoms: _38  and  _41
REMARK   18  A    between atoms: _41  and  _42
REMARK   19  A    between atoms: _45  and  _47
REMARK   20  A    between atoms: _47  and  _48
REMARK   21  A    between atoms: _47  and  _50
REMARK   22  A    between atoms: _50  and  _51
REMARK   23  A    between atoms: _54  and  _56
REMARK   24  A    between atoms: _56  and  _57
REMARK   25  A    between atoms: _59  and  _61
REMARK   26  A    between atoms: _61  and  _62
REMARK   27  A    between atoms: _65  and  _67
REMARK   28  A    between atoms: _67  and  _68
REMARK   29  A    between atoms: _67  and  _70
REMARK   30  A    between atoms: _70  and  _71
REMARK   31  A    between atoms: _74  and  _76
REMARK   32  A    between atoms: _76  and  _77
REMARK   33  A    between atoms: _76  and  _79
REMARK   34  A    between atoms: _79  and  _80
REMARK   35  A    between atoms: _83  and  _85
REMARK   36  A    between atoms: _85  and  _86
REMARK   37  A    between atoms: _85  and  _88
REMARK   38  A    between atoms: _88  and  _89
REMARK   39  A    between atoms: _92  and  _94
REMARK   40  A    between atoms: _94  and  _95
REMARK   41  A    between atoms: _94  and  _97
REMARK   42  A    between atoms: _100  and  _102
REMARK   43  A    between atoms: _102  and  _103
REMARK   44  A    between atoms: _102  and  _105
REMARK   45  A    between atoms: _105  and  _106
REMARK   46  A    between atoms: _109  and  _111
REMARK   47  A    between atoms: _111  and  _112
REMARK   48  A    between atoms: _111  and  _114
REMARK   49  A    between atoms: _114  and  _115
REMARK   50  A    between atoms: _115  and  _116
REMARK   51  A    between atoms: _116  and  _117
REMARK   52  A    between atoms: _117  and  _118
REMARK   53  A    between atoms: _122  and  _124
REMARK   54  A    between atoms: _124  and  _125
REMARK   55  A    between atoms: _124  and  _127
REMARK   56  A    between atoms: _127  and  _128
REMARK   57  A    between atoms: _128  and  _129
REMARK   58  A    between atoms: _131  and  _133
REMARK   59  A    between atoms: _133  and  _134
REMARK   60  A    between atoms: _133  and  _136
REMARK   61  A    between atoms: _136  and  _137
REMARK   62  A    between atoms: _140  and  _142
REMARK   63  A    between atoms: _142  and  _143
REMARK   64  A    between atoms: _145  and  _147
REMARK   65  A    between atoms: _147  and  _148
REMARK   66  A    between atoms: _150  and  _152
REMARK   67  A    between atoms: _152  and  _153
REMARK   68  A    between atoms: _152  and  _155
REMARK   69  A    between atoms: _155  and  _156
REMARK   70  A    between atoms: _159  and  _161
REMARK   71  A    between atoms: _161  and  _162
REMARK   72  A    between atoms: _164  and  _166
REMARK   73  A    between atoms: _166  and  _167
REMARK   74  A    between atoms: _169  and  _171
REMARK   75  A    between atoms: _171  and  _172
REMARK   76  A    between atoms: _171  and  _174
REMARK   77  A    between atoms: _174  and  _175
REMARK   78  A    between atoms: _181  and  _183
REMARK   79  A    between atoms: _183  and  _184
REMARK   80  A    between atoms: _183  and  _186
REMARK   81  A    between atoms: _186  and  _187
REMARK   82  A    between atoms: _190  and  _192
REMARK   83  A    between atoms: _192  and  _193
REMARK   84  A    between atoms: _192  and  _195
REMARK   85  A    between atoms: _198  and  _200
REMARK   86  A    between atoms: _200  and  _201
REMARK   87  A    between atoms: _200  and  _203
REMARK   88  A    between atoms: _203  and  _204
REMARK   89  A    between atoms: _208  and  _209
REMARK   90  A    between atoms: _214  and  _216
REMARK   91  A    between atoms: _216  and  _217
REMARK   92  A    between atoms: _216  and  _219
REMARK   93  A    between atoms: _219  and  _220
REMARK   94  A    between atoms: _224  and  _225
REMARK   95  A    between atoms: _230  and  _232
REMARK   96  A    between atoms: _232  and  _233
REMARK   97  A    between atoms: _232  and  _235
REMARK   98  A    between atoms: _235  and  _236
REMARK   99  A    between atoms: _242  and  _244
REMARK  100  A    between atoms: _244  and  _245
REMARK  101  A    between atoms: _244  and  _247
REMARK  102  A    between atoms: _247  and  _248
REMARK  103  A    between atoms: _253  and  _255
REMARK  104  A    between atoms: _255  and  _256
REMARK  105  A    between atoms: _255  and  _258
REMARK  106  A    between atoms: _261  and  _263
REMARK  107  A    between atoms: _263  and  _264
REMARK  108  A    between atoms: _263  and  _266
REMARK  109  A    between atoms: _266  and  _267
REMARK  110  A    between atoms: _270  and  _272
REMARK  111  A    between atoms: _272  and  _273
REMARK  112  A    between atoms: _275  and  _277
REMARK  113  A    between atoms: _277  and  _278
REMARK  114  A    between atoms: _277  and  _280
REMARK  115  A    between atoms: _280  and  _281
REMARK  116  A    between atoms: _281  and  _282
REMARK  117  A    between atoms: _282  and  _283
REMARK  118  A    between atoms: _292  and  _294
REMARK  119  A    between atoms: _294  and  _295
REMARK  120  A    between atoms: _294  and  _297
REMARK  121  A    between atoms: _297  and  _298
REMARK  122  A    between atoms: _303  and  _305
REMARK  123  A    between atoms: _305  and  _306
REMARK  124  A    between atoms: _305  and  _308
REMARK  125  A    between atoms: _308  and  _309
REMARK  126  A    between atoms: _309  and  _310
REMARK  127  A    between atoms: _310  and  _311
REMARK  128  A    between atoms: _320  and  _322
REMARK  129  A    between atoms: _322  and  _323
REMARK  130  A    between atoms: _322  and  _325
REMARK  131  A    between atoms: _325  and  _326
REMARK  132  A    between atoms: _329  and  _331
REMARK  133  A    between atoms: _331  and  _332
REMARK  134  A    between atoms: _331  and  _334
REMARK  135  A    between atoms: _334  and  _335
REMARK  136  A    between atoms: _338  and  _340
REMARK  137  A    between atoms: _340  and  _341
REMARK  138  A    between atoms: _340  and  _343
REMARK  139  A    between atoms: _343  and  _344
REMARK  140  A    between atoms: _347  and  _349
REMARK  141  A    between atoms: _349  and  _350
REMARK  142  A    between atoms: _349  and  _352
REMARK  143  A    between atoms: _352  and  _353
REMARK  144  A    between atoms: _356  and  _358
REMARK  145  A    between atoms: _358  and  _359
REMARK  146  A    between atoms: _358  and  _361
REMARK  147  A    between atoms: _361  and  _362
REMARK  148  A    between atoms: _365  and  _367
REMARK  149  A    between atoms: _367  and  _368
REMARK  150  A    between atoms: _370  and  _372
REMARK  151  A    between atoms: _372  and  _373
REMARK  152  A    between atoms: _376  and  _378
REMARK  153  A    between atoms: _378  and  _379
REMARK  154  A    between atoms: _378  and  _381
REMARK  155  A    between atoms: _381  and  _382
REMARK  156  A    between atoms: _385  and  _387
REMARK  157  A    between atoms: _387  and  _388
REMARK  158  A    between atoms: _387  and  _390
REMARK  159  A    between atoms: _390  and  _391
REMARK  160  A    between atoms: _394  and  _396
REMARK  161  A    between atoms: _396  and  _397
REMARK  162  A    between atoms: _396  and  _399
REMARK  163  A    between atoms: _399  and  _400
REMARK  164  A    between atoms: _403  and  _405
REMARK  165  A    between atoms: _405  and  _406
REMARK  166  A    between atoms: _405  and  _408
REMARK  167  A    between atoms: _411  and  _413
REMARK  168  A    between atoms: _413  and  _414
REMARK  169  A    between atoms: _413  and  _416
REMARK  170  A    between atoms: _416  and  _417
REMARK  171  A    between atoms: _417  and  _418
REMARK  172  A    between atoms: _418  and  _419
REMARK  173  A    between atoms: _419  and  _420
REMARK  174  A    between atoms: _424  and  _426
REMARK  175  A    between atoms: _426  and  _427
REMARK  176  A    between atoms: _426  and  _429
REMARK  177  A    between atoms: _429  and  _430
REMARK  178  A    between atoms: _430  and  _431
REMARK  179  A    between atoms: _433  and  _435
REMARK  180  A    between atoms: _435  and  _436
REMARK  181  A    between atoms: _435  and  _438
REMARK  182  A    between atoms: _438  and  _439
REMARK  183  A    between atoms: _442  and  _444
REMARK  184  A    between atoms: _444  and  _445
REMARK  185  A    between atoms: _447  and  _449
REMARK  186  A    between atoms: _449  and  _450
REMARK  187  A    between atoms: _452  and  _454
REMARK  188  A    between atoms: _454  and  _455
REMARK  189  A    between atoms: _454  and  _457
REMARK  190  A    between atoms: _457  and  _458
REMARK  191  A    between atoms: _461  and  _463
REMARK  192  A    between atoms: _463  and  _464
REMARK  193  A    between atoms: _466  and  _468
REMARK  194  A    between atoms: _468  and  _469
REMARK  195  A    between atoms: _471  and  _473
REMARK  196  A    between atoms: _473  and  _474
REMARK  197  A    between atoms: _473  and  _476
REMARK  198  A    between atoms: _476  and  _477
REMARK  199  A    between atoms: _480  and  _482
REMARK  200  A    between atoms: _482  and  _483
REMARK  201  A    between atoms: _482  and  _485
REMARK  202  A    between atoms: _488  and  _490
REMARK  203  A    between atoms: _490  and  _491
REMARK  204  A    between atoms: _490  and  _493
REMARK  205  A    between atoms: _493  and  _494
REMARK  206  A    between atoms: _498  and  _499
REMARK  207  A    between atoms: _504  and  _506
REMARK  208  A    between atoms: _506  and  _507
REMARK  209  A    between atoms: _506  and  _509
REMARK  210  A    between atoms: _509  and  _510
REMARK  211  A    between atoms: _514  and  _515
REMARK  212  A    between atoms: _520  and  _522
REMARK  213  A    between atoms: _522  and  _523
REMARK  214  A    between atoms: _522  and  _525
REMARK  215  A    between atoms: _525  and  _526
REMARK  216  A    between atoms: _532  and  _534
REMARK  217  A    between atoms: _534  and  _535
REMARK  218  A    between atoms: _534  and  _537
REMARK  219  A    between atoms: _537  and  _538
REMARK  220  A    between atoms: _543  and  _545
REMARK  221  A    between atoms: _545  and  _546
REMARK  222  A    between atoms: _545  and  _548
REMARK  223  A    between atoms: _551  and  _553
REMARK  224  A    between atoms: _553  and  _554
REMARK  225  A    between atoms: _553  and  _556
REMARK  226  A    between atoms: _556  and  _557
REMARK  227  A    between atoms: _560  and  _562
REMARK  228  A    between atoms: _562  and  _563
REMARK  229  A    between atoms: _565  and  _567
REMARK  230  A    between atoms: _567  and  _568
REMARK  231  A    between atoms: _567  and  _570
REMARK  232  A    between atoms: _570  and  _571
REMARK  233  A    between atoms: _571  and  _572
REMARK  234  A    between atoms: _572  and  _573
REMARK  235  A    between atoms: _582  and  _584
REMARK  236  A    between atoms: _584  and  _585
REMARK  237  A    between atoms: _584  and  _587
REMARK  238  A    between atoms: _587  and  _588
REMARK                            x       y       z     vdW  Elec       q    Type
REMARK                         _______ _______ _______ _____ _____    ______ ____
ROOT
ATOM      1  O   HOH     1      14.800  15.937  11.808  0.00  0.00    +0.000 OA
ENDROOT
TORSDOF 0
REMARK  Name = ../refined-set-2016/1msn/1msn_pocket.pdb
REMARK  238 active torsions:
REMARK  status: ('A' for Active; 'I' for Inactive)
REMARK    1  A    between atoms: _1  and  _3
REMARK    2  A    between atoms: _3  and  _4
REMARK    3  A    between atoms: _3  and  _6
REMARK    4  A    between atoms: _6  and  _7
REMARK    5  A    between atoms: _7  and  _8
REMARK    6  A    between atoms: _8  and  _9
REMARK    7  A    between atoms: _18  and  _20
REMARK    8  A    between atoms: _20  and  _21
REMARK    9  A    between atoms: _20  and  _23
REMARK   10  A    between atoms: _23  and  _24
REMARK   11  A    between atoms: _27  and  _29
REMARK   12  A    between atoms: _29  and  _30
REMARK   13  A    between atoms: _29  and  _32
REMARK   14  A    between atoms: _32  and  _33
REMARK   15  A    between atoms: _36  and  _38
REMARK   16  A    between atoms: _38  and  _39
REMARK   17  A    between atoms: _38  and  _41
REMARK   18  A    between atoms: _41  and  _42
REMARK   19  A    between atoms: _45  and  _47
REMARK   20  A    between atoms: _47  and  _48
REMARK   21  A    between atoms: _47  and  _50
REMARK   22  A    between atoms: _50  and  _51
REMARK   23  A    between atoms: _54  and  _56
REMARK   24  A    between atoms: _56  and  _57
REMARK   25  A    between atoms: _59  and  _61
REMARK   26  A    between atoms: _61  and  _62
REMARK   27  A    between atoms: _65  and  _67
REMARK   28  A    between atoms: _67  and  _68
REMARK   29  A    between atoms: _67  and  _70
REMARK   30  A    between atoms: _70  and  _71
REMARK   31  A    between atoms: _74  and  _76
REMARK   32  A    between atoms: _76  and  _77
REMARK   33  A    between atoms: _76  and  _79
REMARK   34  A    between atoms: _79  and  _80
REMARK   35  A    between atoms: _83  and  _85
REMARK   36  A    between atoms: _85  and  _86
REMARK   37  A    between atoms: _85  and  _88
REMARK   38  A    between atoms: _88  and  _89
REMARK   39  A    between atoms: _92  and  _94
REMARK   40  A    between atoms: _94  and  _95
REMARK   41  A    between atoms: _94  and  _97
REMARK   42  A    between atoms: _100  and  _102
REMARK   43  A    between atoms: _102  and  _103
REMARK   44  A    between atoms: _102  and  _105
REMARK   45  A    between atoms: _105  and  _106
REMARK   46  A    between atoms: _109  and  _111
REMARK   47  A    between atoms: _111  and  _112
REMARK   48  A    between atoms: _111  and  _114
REMARK   49  A    between atoms: _114  and  _115
REMARK   50  A    between atoms: _115  and  _116
REMARK   51  A    between atoms: _116  and  _117
REMARK   52  A    between atoms: _117  and  _118
REMARK   53  A    between atoms: _122  and  _124
REMARK   54  A    between atoms: _124  and  _125
REMARK   55  A    between atoms: _124  and  _127
REMARK   56  A    between atoms: _127  and  _128
REMARK   57  A    between atoms: _128  and  _129
REMARK   58  A    between atoms: _131  and  _133
REMARK   59  A    between atoms: _133  and  _134
REMARK   60  A    between atoms: _133  and  _136
REMARK   61  A    between atoms: _136  and  _137
REMARK   62  A    between atoms: _140  and  _142
REMARK   63  A    between atoms: _142  and  _143
REMARK   64  A    between atoms: _145  and  _147
REMARK   65  A    between atoms: _147  and  _148
REMARK   66  A    between atoms: _150  and  _152
REMARK   67  A    between atoms: _152  and  _153
REMARK   68  A    between atoms: _152  and  _155
REMARK   69  A    between atoms: _155  and  _156
REMARK   70  A    between atoms: _159  and  _161
REMARK   71  A    between atoms: _161  and  _162
REMARK   72  A    between atoms: _164  and  _166
REMARK   73  A    between atoms: _166  and  _167
REMARK   74  A    between atoms: _169  and  _171
REMARK   75  A    between atoms: _171  and  _172
REMARK   76  A    between atoms: _171  and  _174
REMARK   77  A    between atoms: _174  and  _175
REMARK   78  A    between atoms: _181  and  _183
REMARK   79  A    between atoms: _183  and  _184
REMARK   80  A    between atoms: _183  and  _186
REMARK   81  A    between atoms: _186  and  _187
REMARK   82  A    between atoms: _190  and  _192
REMARK   83  A    between atoms: _192  and  _193
REMARK   84  A    between atoms: _192  and  _195
REMARK   85  A    between atoms: _198  and  _200
REMARK   86  A    between atoms: _200  and  _201
REMARK   87  A    between atoms: _200  and  _203
REMARK   88  A    between atoms: _203  and  _204
REMARK   89  A    between atoms: _208  and  _209
REMARK   90  A    between atoms: _214  and  _216
REMARK   91  A    between atoms: _216  and  _217
REMARK   92  A    between atoms: _216  and  _219
REMARK   93  A    between atoms: _219  and  _220
REMARK   94  A    between atoms: _224  and  _225
REMARK   95  A    between atoms: _230  and  _232
REMARK   96  A    between atoms: _232  and  _233
REMARK   97  A    between atoms: _232  and  _235
REMARK   98  A    between atoms: _235  and  _236
REMARK   99  A    between atoms: _242  and  _244
REMARK  100  A    between atoms: _244  and  _245
REMARK  101  A    between atoms: _244  and  _247
REMARK  102  A    between atoms: _247  and  _248
REMARK  103  A    between atoms: _253  and  _255
REMARK  104  A    between atoms: _255  and  _256
REMARK  105  A    between atoms: _255  and  _258
REMARK  106  A    between atoms: _261  and  _263
REMARK  107  A    between atoms: _263  and  _264
REMARK  108  A    between atoms: _263  and  _266
REMARK  109  A    between atoms: _266  and  _267
REMARK  110  A    between atoms: _270  and  _272
REMARK  111  A    between atoms: _272  and  _273
REMARK  112  A    between atoms: _275  and  _277
REMARK  113  A    between atoms: _277  and  _278
REMARK  114  A    between atoms: _277  and  _280
REMARK  115  A    between atoms: _280  and  _281
REMARK  116  A    between atoms: _281  and  _282
REMARK  117  A    between atoms: _282  and  _283
REMARK  118  A    between atoms: _292  and  _294
REMARK  119  A    between atoms: _294  and  _295
REMARK  120  A    between atoms: _294  and  _297
REMARK  121  A    between atoms: _297  and  _298
REMARK  122  A    between atoms: _303  and  _305
REMARK  123  A    between atoms: _305  and  _306
REMARK  124  A    between atoms: _305  and  _308
REMARK  125  A    between atoms: _308  and  _309
REMARK  126  A    between atoms: _309  and  _310
REMARK  127  A    between atoms: _310  and  _311
REMARK  128  A    between atoms: _320  and  _322
REMARK  129  A    between atoms: _322  and  _323
REMARK  130  A    between atoms: _322  and  _325
REMARK  131  A    between atoms: _325  and  _326
REMARK  132  A    between atoms: _329  and  _331
REMARK  133  A    between atoms: _331  and  _332
REMARK  134  A    between atoms: _331  and  _334
REMARK  135  A    between atoms: _334  and  _335
REMARK  136  A    between atoms: _338  and  _340
REMARK  137  A    between atoms: _340  and  _341
REMARK  138  A    between atoms: _340  and  _343
REMARK  139  A    between atoms: _343  and  _344
REMARK  140  A    between atoms: _347  and  _349
REMARK  141  A    between atoms: _349  and  _350
REMARK  142  A    between atoms: _349  and  _352
REMARK  143  A    between atoms: _352  and  _353
REMARK  144  A    between atoms: _356  and  _358
REMARK  145  A    between atoms: _358  and  _359
REMARK  146  A    between atoms: _358  and  _361
REMARK  147  A    between atoms: _361  and  _362
REMARK  148  A    between atoms: _365  and  _367
REMARK  149  A    between atoms: _367  and  _368
REMARK  150  A    between atoms: _370  and  _372
REMARK  151  A    between atoms: _372  and  _373
REMARK  152  A    between atoms: _376  and  _378
REMARK  153  A    between atoms: _378  and  _379
REMARK  154  A    between atoms: _378  and  _381
REMARK  155  A    between atoms: _381  and  _382
REMARK  156  A    between atoms: _385  and  _387
REMARK  157  A    between atoms: _387  and  _388
REMARK  158  A    between atoms: _387  and  _390
REMARK  159  A    between atoms: _390  and  _391
REMARK  160  A    between atoms: _394  and  _396
REMARK  161  A    between atoms: _396  and  _397
REMARK  162  A    between atoms: _396  and  _399
REMARK  163  A    between atoms: _399  and  _400
REMARK  164  A    between atoms: _403  and  _405
REMARK  165  A    between atoms: _405  and  _406
REMARK  166  A    between atoms: _405  and  _408
REMARK  167  A    between atoms: _411  and  _413
REMARK  168  A    between atoms: _413  and  _414
REMARK  169  A    between atoms: _413  and  _416
REMARK  170  A    between atoms: _416  and  _417
REMARK  171  A    between atoms: _417  and  _418
REMARK  172  A    between atoms: _418  and  _419
REMARK  173  A    between atoms: _419  and  _420
REMARK  174  A    between atoms: _424  and  _426
REMARK  175  A    between atoms: _426  and  _427
REMARK  176  A    between atoms: _426  and  _429
REMARK  177  A    between atoms: _429  and  _430
REMARK  178  A    between atoms: _430  and  _431
REMARK  179  A    between atoms: _433  and  _435
REMARK  180  A    between atoms: _435  and  _436
REMARK  181  A    between atoms: _435  and  _438
REMARK  182  A    between atoms: _438  and  _439
REMARK  183  A    between atoms: _442  and  _444
REMARK  184  A    between atoms: _444  and  _445
REMARK  185  A    between atoms: _447  and  _449
REMARK  186  A    between atoms: _449  and  _450
REMARK  187  A    between atoms: _452  and  _454
REMARK  188  A    between atoms: _454  and  _455
REMARK  189  A    between atoms: _454  and  _457
REMARK  190  A    between atoms: _457  and  _458
REMARK  191  A    between atoms: _461  and  _463
REMARK  192  A    between atoms: _463  and  _464
REMARK  193  A    between atoms: _466  and  _468
REMARK  194  A    between atoms: _468  and  _469
REMARK  195  A    between atoms: _471  and  _473
REMARK  196  A    between atoms: _473  and  _474
REMARK  197  A    between atoms: _473  and  _476
REMARK  198  A    between atoms: _476  and  _477
REMARK  199  A    between atoms: _480  and  _482
REMARK  200  A    between atoms: _482  and  _483
REMARK  201  A    between atoms: _482  and  _485
REMARK  202  A    between atoms: _488  and  _490
REMARK  203  A    between atoms: _490  and  _491
REMARK  204  A    between atoms: _490  and  _493
REMARK  205  A    between atoms: _493  and  _494
REMARK  206  A    between atoms: _498  and  _499
REMARK  207  A    between atoms: _504  and  _506
REMARK  208  A    between atoms: _506  and  _507
REMARK  209  A    between atoms: _506  and  _509
REMARK  210  A    between atoms: _509  and  _510
REMARK  211  A    between atoms: _514  and  _515
REMARK  212  A    between atoms: _520  and  _522
REMARK  213  A    between atoms: _522  and  _523
REMARK  214  A    between atoms: _522  and  _525
REMARK  215  A    between atoms: _525  and  _526
REMARK  216  A    between atoms: _532  and  _534
REMARK  217  A    between atoms: _534  and  _535
REMARK  218  A    between atoms: _534  and  _537
REMARK  219  A    between atoms: _537  and  _538
REMARK  220  A    between atoms: _543  and  _545
REMARK  221  A    between atoms: _545  and  _546
REMARK  222  A    between atoms: _545  and  _548
REMARK  223  A    between atoms: _551  and  _553
REMARK  224  A    between atoms: _553  and  _554
REMARK  225  A    between atoms: _553  and  _556
REMARK  226  A    between atoms: _556  and  _557
REMARK  227  A    between atoms: _560  and  _562
REMARK  228  A    between atoms: _562  and  _563
REMARK  229  A    between atoms: _565  and  _567
REMARK  230  A    between atoms: _567  and  _568
REMARK  231  A    between atoms: _567  and  _570
REMARK  232  A    between atoms: _570  and  _571
REMARK  233  A    between atoms: _571  and  _572
REMARK  234  A    between atoms: _572  and  _573
REMARK  235  A    between atoms: _582  and  _584
REMARK  236  A    between atoms: _584  and  _585
REMARK  237  A    between atoms: _584  and  _587
REMARK  238  A    between atoms: _587  and  _588
REMARK                            x       y       z     vdW  Elec       q    Type
REMARK                         _______ _______ _______ _____ _____    ______ ____
ROOT
ATOM      1  O   HOH     1       6.980  24.244  18.011  0.00  0.00    +0.000 OA
ENDROOT
TORSDOF 0
REMARK  Name = ../refined-set-2016/1msn/1msn_pocket.pdb
REMARK  238 active torsions:
REMARK  status: ('A' for Active; 'I' for Inactive)
REMARK    1  A    between atoms: _1  and  _3
REMARK    2  A    between atoms: _3  and  _4
REMARK    3  A    between atoms: _3  and  _6
REMARK    4  A    between atoms: _6  and  _7
REMARK    5  A    between atoms: _7  and  _8
REMARK    6  A    between atoms: _8  and  _9
REMARK    7  A    between atoms: _18  and  _20
REMARK    8  A    between atoms: _20  and  _21
REMARK    9  A    between atoms: _20  and  _23
REMARK   10  A    between atoms: _23  and  _24
REMARK   11  A    between atoms: _27  and  _29
REMARK   12  A    between atoms: _29  and  _30
REMARK   13  A    between atoms: _29  and  _32
REMARK   14  A    between atoms: _32  and  _33
REMARK   15  A    between atoms: _36  and  _38
REMARK   16  A    between atoms: _38  and  _39
REMARK   17  A    between atoms: _38  and  _41
REMARK   18  A    between atoms: _41  and  _42
REMARK   19  A    between atoms: _45  and  _47
REMARK   20  A    between atoms: _47  and  _48
REMARK   21  A    between atoms: _47  and  _50
REMARK   22  A    between atoms: _50  and  _51
REMARK   23  A    between atoms: _54  and  _56
REMARK   24  A    between atoms: _56  and  _57
REMARK   25  A    between atoms: _59  and  _61
REMARK   26  A    between atoms: _61  and  _62
REMARK   27  A    between atoms: _65  and  _67
REMARK   28  A    between atoms: _67  and  _68
REMARK   29  A    between atoms: _67  and  _70
REMARK   30  A    between atoms: _70  and  _71
REMARK   31  A    between atoms: _74  and  _76
REMARK   32  A    between atoms: _76  and  _77
REMARK   33  A    between atoms: _76  and  _79
REMARK   34  A    between atoms: _79  and  _80
REMARK   35  A    between atoms: _83  and  _85
REMARK   36  A    between atoms: _85  and  _86
REMARK   37  A    between atoms: _85  and  _88
REMARK   38  A    between atoms: _88  and  _89
REMARK   39  A    between atoms: _92  and  _94
REMARK   40  A    between atoms: _94  and  _95
REMARK   41  A    between atoms: _94  and  _97
REMARK   42  A    between atoms: _100  and  _102
REMARK   43  A    between atoms: _102  and  _103
REMARK   44  A    between atoms: _102  and  _105
REMARK   45  A    between atoms: _105  and  _106
REMARK   46  A    between atoms: _109  and  _111
REMARK   47  A    between atoms: _111  and  _112
REMARK   48  A    between atoms: _111  and  _114
REMARK   49  A    between atoms: _114  and  _115
REMARK   50  A    between atoms: _115  and  _116
REMARK   51  A    between atoms: _116  and  _117
REMARK   52  A    between atoms: _117  and  _118
REMARK   53  A    between atoms: _122  and  _124
REMARK   54  A    between atoms: _124  and  _125
REMARK   55  A    between atoms: _124  and  _127
REMARK   56  A    between atoms: _127  and  _128
REMARK   57  A    between atoms: _128  and  _129
REMARK   58  A    between atoms: _131  and  _133
REMARK   59  A    between atoms: _133  and  _134
REMARK   60  A    between atoms: _133  and  _136
REMARK   61  A    between atoms: _136  and  _137
REMARK   62  A    between atoms: _140  and  _142
REMARK   63  A    between atoms: _142  and  _143
REMARK   64  A    between atoms: _145  and  _147
REMARK   65  A    between atoms: _147  and  _148
REMARK   66  A    between atoms: _150  and  _152
REMARK   67  A    between atoms: _152  and  _153
REMARK   68  A    between atoms: _152  and  _155
REMARK   69  A    between atoms: _155  and  _156
REMARK   70  A    between atoms: _159  and  _161
REMARK   71  A    between atoms: _161  and  _162
REMARK   72  A    between atoms: _164  and  _166
REMARK   73  A    between atoms: _166  and  _167
REMARK   74  A    between atoms: _169  and  _171
REMARK   75  A    between atoms: _171  and  _172
REMARK   76  A    between atoms: _171  and  _174
REMARK   77  A    between atoms: _174  and  _175
REMARK   78  A    between atoms: _181  and  _183
REMARK   79  A    between atoms: _183  and  _184
REMARK   80  A    between atoms: _183  and  _186
REMARK   81  A    between atoms: _186  and  _187
REMARK   82  A    between atoms: _190  and  _192
REMARK   83  A    between atoms: _192  and  _193
REMARK   84  A    between atoms: _192  and  _195
REMARK   85  A    between atoms: _198  and  _200
REMARK   86  A    between atoms: _200  and  _201
REMARK   87  A    between atoms: _200  and  _203
REMARK   88  A    between atoms: _203  and  _204
REMARK   89  A    between atoms: _208  and  _209
REMARK   90  A    between atoms: _214  and  _216
REMARK   91  A    between atoms: _216  and  _217
REMARK   92  A    between atoms: _216  and  _219
REMARK   93  A    between atoms: _219  and  _220
REMARK   94  A    between atoms: _224  and  _225
REMARK   95  A    between atoms: _230  and  _232
REMARK   96  A    between atoms: _232  and  _233
REMARK   97  A    between atoms: _232  and  _235
REMARK   98  A    between atoms: _235  and  _236
REMARK   99  A    between atoms: _242  and  _244
REMARK  100  A    between atoms: _244  and  _245
REMARK  101  A    between atoms: _244  and  _247
REMARK  102  A    between atoms: _247  and  _248
REMARK  103  A    between atoms: _253  and  _255
REMARK  104  A    between atoms: _255  and  _256
REMARK  105  A    between atoms: _255  and  _258
REMARK  106  A    between atoms: _261  and  _263
REMARK  107  A    between atoms: _263  and  _264
REMARK  108  A    between atoms: _263  and  _266
REMARK  109  A    between atoms: _266  and  _267
REMARK  110  A    between atoms: _270  and  _272
REMARK  111  A    between atoms: _272  and  _273
REMARK  112  A    between atoms: _275  and  _277
REMARK  113  A    between atoms: _277  and  _278
REMARK  114  A    between atoms: _277  and  _280
REMARK  115  A    between atoms: _280  and  _281
REMARK  116  A    between atoms: _281  and  _282
REMARK  117  A    between atoms: _282  and  _283
REMARK  118  A    between atoms: _292  and  _294
REMARK  119  A    between atoms: _294  and  _295
REMARK  120  A    between atoms: _294  and  _297
REMARK  121  A    between atoms: _297  and  _298
REMARK  122  A    between atoms: _303  and  _305
REMARK  123  A    between atoms: _305  and  _306
REMARK  124  A    between atoms: _305  and  _308
REMARK  125  A    between atoms: _308  and  _309
REMARK  126  A    between atoms: _309  and  _310
REMARK  127  A    between atoms: _310  and  _311
REMARK  128  A    between atoms: _320  and  _322
REMARK  129  A    between atoms: _322  and  _323
REMARK  130  A    between atoms: _322  and  _325
REMARK  131  A    between atoms: _325  and  _326
REMARK  132  A    between atoms: _329  and  _331
REMARK  133  A    between atoms: _331  and  _332
REMARK  134  A    between atoms: _331  and  _334
REMARK  135  A    between atoms: _334  and  _335
REMARK  136  A    between atoms: _338  and  _340
REMARK  137  A    between atoms: _340  and  _341
REMARK  138  A    between atoms: _340  and  _343
REMARK  139  A    between atoms: _343  and  _344
REMARK  140  A    between atoms: _347  and  _349
REMARK  141  A    between atoms: _349  and  _350
REMARK  142  A    between atoms: _349  and  _352
REMARK  143  A    between atoms: _352  and  _353
REMARK  144  A    between atoms: _356  and  _358
REMARK  145  A    between atoms: _358  and  _359
REMARK  146  A    between atoms: _358  and  _361
REMARK  147  A    between atoms: _361  and  _362
REMARK  148  A    between atoms: _365  and  _367
REMARK  149  A    between atoms: _367  and  _368
REMARK  150  A    between atoms: _370  and  _372
REMARK  151  A    between atoms: _372  and  _373
REMARK  152  A    between atoms: _376  and  _378
REMARK  153  A    between atoms: _378  and  _379
REMARK  154  A    between atoms: _378  and  _381
REMARK  155  A    between atoms: _381  and  _382
REMARK  156  A    between atoms: _385  and  _387
REMARK  157  A    between atoms: _387  and  _388
REMARK  158  A    between atoms: _387  and  _390
REMARK  159  A    between atoms: _390  and  _391
REMARK  160  A    between atoms: _394  and  _396
REMARK  161  A    between atoms: _396  and  _397
REMARK  162  A    between atoms: _396  and  _399
REMARK  163  A    between atoms: _399  and  _400
REMARK  164  A    between atoms: _403  and  _405
REMARK  165  A    between atoms: _405  and  _406
REMARK  166  A    between atoms: _405  and  _408
REMARK  167  A    between atoms: _411  and  _413
REMARK  168  A    between atoms: _413  and  _414
REMARK  169  A    between atoms: _413  and  _416
REMARK  170  A    between atoms: _416  and  _417
REMARK  171  A    between atoms: _417  and  _418
REMARK  172  A    between atoms: _418  and  _419
REMARK  173  A    between atoms: _419  and  _420
REMARK  174  A    between atoms: _424  and  _426
REMARK  175  A    between atoms: _426  and  _427
REMARK  176  A    between atoms: _426  and  _429
REMARK  177  A    between atoms: _429  and  _430
REMARK  178  A    between atoms: _430  and  _431
REMARK  179  A    between atoms: _433  and  _435
REMARK  180  A    between atoms: _435  and  _436
REMARK  181  A    between atoms: _435  and  _438
REMARK  182  A    between atoms: _438  and  _439
REMARK  183  A    between atoms: _442  and  _444
REMARK  184  A    between atoms: _444  and  _445
REMARK  185  A    between atoms: _447  and  _449
REMARK  186  A    between atoms: _449  and  _450
REMARK  187  A    between atoms: _452  and  _454
REMARK  188  A    between atoms: _454  and  _455
REMARK  189  A    between atoms: _454  and  _457
REMARK  190  A    between atoms: _457  and  _458
REMARK  191  A    between atoms: _461  and  _463
REMARK  192  A    between atoms: _463  and  _464
REMARK  193  A    between atoms: _466  and  _468
REMARK  194  A    between atoms: _468  and  _469
REMARK  195  A    between atoms: _471  and  _473
REMARK  196  A    between atoms: _473  and  _474
REMARK  197  A    between atoms: _473  and  _476
REMARK  198  A    between atoms: _476  and  _477
REMARK  199  A    between atoms: _480  and  _482
REMARK  200  A    between atoms: _482  and  _483
REMARK  201  A    between atoms: _482  and  _485
REMARK  202  A    between atoms: _488  and  _490
REMARK  203  A    between atoms: _490  and  _491
REMARK  204  A    between atoms: _490  and  _493
REMARK  205  A    between atoms: _493  and  _494
REMARK  206  A    between atoms: _498  and  _499
REMARK  207  A    between atoms: _504  and  _506
REMARK  208  A    between atoms: _506  and  _507
REMARK  209  A    between atoms: _506  and  _509
REMARK  210  A    between atoms: _509  and  _510
REMARK  211  A    between atoms: _514  and  _515
REMARK  212  A    between atoms: _520  and  _522
REMARK  213  A    between atoms: _522  and  _523
REMARK  214  A    between atoms: _522  and  _525
REMARK  215  A    between atoms: _525  and  _526
REMARK  216  A    between atoms: _532  and  _534
REMARK  217  A    between atoms: _534  and  _535
REMARK  218  A    between atoms: _534  and  _537
REMARK  219  A    between atoms: _537  and  _538
REMARK  220  A    between atoms: _543  and  _545
REMARK  221  A    between atoms: _545  and  _546
REMARK  222  A    between atoms: _545  and  _548
REMARK  223  A    between atoms: _551  and  _553
REMARK  224  A    between atoms: _553  and  _554
REMARK  225  A    between atoms: _553  and  _556
REMARK  226  A    between atoms: _556  and  _557
REMARK  227  A    between atoms: _560  and  _562
REMARK  228  A    between atoms: _562  and  _563
REMARK  229  A    between atoms: _565  and  _567
REMARK  230  A    between atoms: _567  and  _568
REMARK  231  A    between atoms: _567  and  _570
REMARK  232  A    between atoms: _570  and  _571
REMARK  233  A    between atoms: _571  and  _572
REMARK  234  A    between atoms: _572  and  _573
REMARK  235  A    between atoms: _582  and  _584
REMARK  236  A    between atoms: _584  and  _585
REMARK  237  A    between atoms: _584  and  _587
REMARK  238  A    between atoms: _587  and  _588
REMARK                            x       y       z     vdW  Elec       q    Type
REMARK                         _______ _______ _______ _____ _____    ______ ____
ROOT
ATOM      1  O   HOH     1      22.312  15.587  19.378  0.00  0.00    +0.000 OA
ENDROOT
TORSDOF 0
REMARK  Name = ../refined-set-2016/1msn/1msn_pocket.pdb
REMARK  238 active torsions:
REMARK  status: ('A' for Active; 'I' for Inactive)
REMARK    1  A    between atoms: _1  and  _3
REMARK    2  A    between atoms: _3  and  _4
REMARK    3  A    between atoms: _3  and  _6
REMARK    4  A    between atoms: _6  and  _7
REMARK    5  A    between atoms: _7  and  _8
REMARK    6  A    between atoms: _8  and  _9
REMARK    7  A    between atoms: _18  and  _20
REMARK    8  A    between atoms: _20  and  _21
REMARK    9  A    between atoms: _20  and  _23
REMARK   10  A    between atoms: _23  and  _24
REMARK   11  A    between atoms: _27  and  _29
REMARK   12  A    between atoms: _29  and  _30
REMARK   13  A    between atoms: _29  and  _32
REMARK   14  A    between atoms: _32  and  _33
REMARK   15  A    between atoms: _36  and  _38
REMARK   16  A    between atoms: _38  and  _39
REMARK   17  A    between atoms: _38  and  _41
REMARK   18  A    between atoms: _41  and  _42
REMARK   19  A    between atoms: _45  and  _47
REMARK   20  A    between atoms: _47  and  _48
REMARK   21  A    between atoms: _47  and  _50
REMARK   22  A    between atoms: _50  and  _51
REMARK   23  A    between atoms: _54  and  _56
REMARK   24  A    between atoms: _56  and  _57
REMARK   25  A    between atoms: _59  and  _61
REMARK   26  A    between atoms: _61  and  _62
REMARK   27  A    between atoms: _65  and  _67
REMARK   28  A    between atoms: _67  and  _68
REMARK   29  A    between atoms: _67  and  _70
REMARK   30  A    between atoms: _70  and  _71
REMARK   31  A    between atoms: _74  and  _76
REMARK   32  A    between atoms: _76  and  _77
REMARK   33  A    between atoms: _76  and  _79
REMARK   34  A    between atoms: _79  and  _80
REMARK   35  A    between atoms: _83  and  _85
REMARK   36  A    between atoms: _85  and  _86
REMARK   37  A    between atoms: _85  and  _88
REMARK   38  A    between atoms: _88  and  _89
REMARK   39  A    between atoms: _92  and  _94
REMARK   40  A    between atoms: _94  and  _95
REMARK   41  A    between atoms: _94  and  _97
REMARK   42  A    between atoms: _100  and  _102
REMARK   43  A    between atoms: _102  and  _103
REMARK   44  A    between atoms: _102  and  _105
REMARK   45  A    between atoms: _105  and  _106
REMARK   46  A    between atoms: _109  and  _111
REMARK   47  A    between atoms: _111  and  _112
REMARK   48  A    between atoms: _111  and  _114
REMARK   49  A    between atoms: _114  and  _115
REMARK   50  A    between atoms: _115  and  _116
REMARK   51  A    between atoms: _116  and  _117
REMARK   52  A    between atoms: _117  and  _118
REMARK   53  A    between atoms: _122  and  _124
REMARK   54  A    between atoms: _124  and  _125
REMARK   55  A    between atoms: _124  and  _127
REMARK   56  A    between atoms: _127  and  _128
REMARK   57  A    between atoms: _128  and  _129
REMARK   58  A    between atoms: _131  and  _133
REMARK   59  A    between atoms: _133  and  _134
REMARK   60  A    between atoms: _133  and  _136
REMARK   61  A    between atoms: _136  and  _137
REMARK   62  A    between atoms: _140  and  _142
REMARK   63  A    between atoms: _142  and  _143
REMARK   64  A    between atoms: _145  and  _147
REMARK   65  A    between atoms: _147  and  _148
REMARK   66  A    between atoms: _150  and  _152
REMARK   67  A    between atoms: _152  and  _153
REMARK   68  A    between atoms: _152  and  _155
REMARK   69  A    between atoms: _155  and  _156
REMARK   70  A    between atoms: _159  and  _161
REMARK   71  A    between atoms: _161  and  _162
REMARK   72  A    between atoms: _164  and  _166
REMARK   73  A    between atoms: _166  and  _167
REMARK   74  A    between atoms: _169  and  _171
REMARK   75  A    between atoms: _171  and  _172
REMARK   76  A    between atoms: _171  and  _174
REMARK   77  A    between atoms: _174  and  _175
REMARK   78  A    between atoms: _181  and  _183
REMARK   79  A    between atoms: _183  and  _184
REMARK   80  A    between atoms: _183  and  _186
REMARK   81  A    between atoms: _186  and  _187
REMARK   82  A    between atoms: _190  and  _192
REMARK   83  A    between atoms: _192  and  _193
REMARK   84  A    between atoms: _192  and  _195
REMARK   85  A    between atoms: _198  and  _200
REMARK   86  A    between atoms: _200  and  _201
REMARK   87  A    between atoms: _200  and  _203
REMARK   88  A    between atoms: _203  and  _204
REMARK   89  A    between atoms: _208  and  _209
REMARK   90  A    between atoms: _214  and  _216
REMARK   91  A    between atoms: _216  and  _217
REMARK   92  A    between atoms: _216  and  _219
REMARK   93  A    between atoms: _219  and  _220
REMARK   94  A    between atoms: _224  and  _225
REMARK   95  A    between atoms: _230  and  _232
REMARK   96  A    between atoms: _232  and  _233
REMARK   97  A    between atoms: _232  and  _235
REMARK   98  A    between atoms: _235  and  _236
REMARK   99  A    between atoms: _242  and  _244
REMARK  100  A    between atoms: _244  and  _245
REMARK  101  A    between atoms: _244  and  _247
REMARK  102  A    between atoms: _247  and  _248
REMARK  103  A    between atoms: _253  and  _255
REMARK  104  A    between atoms: _255  and  _256
REMARK  105  A    between atoms: _255  and  _258
REMARK  106  A    between atoms: _261  and  _263
REMARK  107  A    between atoms: _263  and  _264
REMARK  108  A    between atoms: _263  and  _266
REMARK  109  A    between atoms: _266  and  _267
REMARK  110  A    between atoms: _270  and  _272
REMARK  111  A    between atoms: _272  and  _273
REMARK  112  A    between atoms: _275  and  _277
REMARK  113  A    between atoms: _277  and  _278
REMARK  114  A    between atoms: _277  and  _280
REMARK  115  A    between atoms: _280  and  _281
REMARK  116  A    between atoms: _281  and  _282
REMARK  117  A    between atoms: _282  and  _283
REMARK  118  A    between atoms: _292  and  _294
REMARK  119  A    between atoms: _294  and  _295
REMARK  120  A    between atoms: _294  and  _297
REMARK  121  A    between atoms: _297  and  _298
REMARK  122  A    between atoms: _303  and  _305
REMARK  123  A    between atoms: _305  and  _306
REMARK  124  A    between atoms: _305  and  _308
REMARK  125  A    between atoms: _308  and  _309
REMARK  126  A    between atoms: _309  and  _310
REMARK  127  A    between atoms: _310  and  _311
REMARK  128  A    between atoms: _320  and  _322
REMARK  129  A    between atoms: _322  and  _323
REMARK  130  A    between atoms: _322  and  _325
REMARK  131  A    between atoms: _325  and  _326
REMARK  132  A    between atoms: _329  and  _331
REMARK  133  A    between atoms: _331  and  _332
REMARK  134  A    between atoms: _331  and  _334
REMARK  135  A    between atoms: _334  and  _335
REMARK  136  A    between atoms: _338  and  _340
REMARK  137  A    between atoms: _340  and  _341
REMARK  138  A    between atoms: _340  and  _343
REMARK  139  A    between atoms: _343  and  _344
REMARK  140  A    between atoms: _347  and  _349
REMARK  141  A    between atoms: _349  and  _350
REMARK  142  A    between atoms: _349  and  _352
REMARK  143  A    between atoms: _352  and  _353
REMARK  144  A    between atoms: _356  and  _358
REMARK  145  A    between atoms: _358  and  _359
REMARK  146  A    between atoms: _358  and  _361
REMARK  147  A    between atoms: _361  and  _362
REMARK  148  A    between atoms: _365  and  _367
REMARK  149  A    between atoms: _367  and  _368
REMARK  150  A    between atoms: _370  and  _372
REMARK  151  A    between atoms: _372  and  _373
REMARK  152  A    between atoms: _376  and  _378
REMARK  153  A    between atoms: _378  and  _379
REMARK  154  A    between atoms: _378  and  _381
REMARK  155  A    between atoms: _381  and  _382
REMARK  156  A    between atoms: _385  and  _387
REMARK  157  A    between atoms: _387  and  _388
REMARK  158  A    between atoms: _387  and  _390
REMARK  159  A    between atoms: _390  and  _391
REMARK  160  A    between atoms: _394  and  _396
REMARK  161  A    between atoms: _396  and  _397
REMARK  162  A    between atoms: _396  and  _399
REMARK  163  A    between atoms: _399  and  _400
REMARK  164  A    between atoms: _403  and  _405
REMARK  165  A    between atoms: _405  and  _406
REMARK  166  A    between atoms: _405  and  _408
REMARK  167  A    between atoms: _411  and  _413
REMARK  168  A    between atoms: _413  and  _414
REMARK  169  A    between atoms: _413  and  _416
REMARK  170  A    between atoms: _416  and  _417
REMARK  171  A    between atoms: _417  and  _418
REMARK  172  A    between atoms: _418  and  _419
REMARK  173  A    between atoms: _419  and  _420
REMARK  174  A    between atoms: _424  and  _426
REMARK  175  A    between atoms: _426  and  _427
REMARK  176  A    between atoms: _426  and  _429
REMARK  177  A    between atoms: _429  and  _430
REMARK  178  A    between atoms: _430  and  _431
REMARK  179  A    between atoms: _433  and  _435
REMARK  180  A    between atoms: _435  and  _436
REMARK  181  A    between atoms: _435  and  _438
REMARK  182  A    between atoms: _438  and  _439
REMARK  183  A    between atoms: _442  and  _444
REMARK  184  A    between atoms: _444  and  _445
REMARK  185  A    between atoms: _447  and  _449
REMARK  186  A    between atoms: _449  and  _450
REMARK  187  A    between atoms: _452  and  _454
REMARK  188  A    between atoms: _454  and  _455
REMARK  189  A    between atoms: _454  and  _457
REMARK  190  A    between atoms: _457  and  _458
REMARK  191  A    between atoms: _461  and  _463
REMARK  192  A    between atoms: _463  and  _464
REMARK  193  A    between atoms: _466  and  _468
REMARK  194  A    between atoms: _468  and  _469
REMARK  195  A    between atoms: _471  and  _473
REMARK  196  A    between atoms: _473  and  _474
REMARK  197  A    between atoms: _473  and  _476
REMARK  198  A    between atoms: _476  and  _477
REMARK  199  A    between atoms: _480  and  _482
REMARK  200  A    between atoms: _482  and  _483
REMARK  201  A    between atoms: _482  and  _485
REMARK  202  A    between atoms: _488  and  _490
REMARK  203  A    between atoms: _490  and  _491
REMARK  204  A    between atoms: _490  and  _493
REMARK  205  A    between atoms: _493  and  _494
REMARK  206  A    between atoms: _498  and  _499
REMARK  207  A    between atoms: _504  and  _506
REMARK  208  A    between atoms: _506  and  _507
REMARK  209  A    between atoms: _506  and  _509
REMARK  210  A    between atoms: _509  and  _510
REMARK  211  A    between atoms: _514  and  _515
REMARK  212  A    between atoms: _520  and  _522
REMARK  213  A    between atoms: _522  and  _523
REMARK  214  A    between atoms: _522  and  _525
REMARK  215  A    between atoms: _525  and  _526
REMARK  216  A    between atoms: _532  and  _534
REMARK  217  A    between atoms: _534  and  _535
REMARK  218  A    between atoms: _534  and  _537
REMARK  219  A    between atoms: _537  and  _538
REMARK  220  A    between atoms: _543  and  _545
REMARK  221  A    between atoms: _545  and  _546
REMARK  222  A    between atoms: _545  and  _548
REMARK  223  A    between atoms: _551  and  _553
REMARK  224  A    between atoms: _553  and  _554
REMARK  225  A    between atoms: _553  and  _556
REMARK  226  A    between atoms: _556  and  _557
REMARK  227  A    between atoms: _560  and  _562
REMARK  228  A    between atoms: _562  and  _563
REMARK  229  A    between atoms: _565  and  _567
REMARK  230  A    between atoms: _567  and  _568
REMARK  231  A    between atoms: _567  and  _570
REMARK  232  A    between atoms: _570  and  _571
REMARK  233  A    between atoms: _571  and  _572
REMARK  234  A    between atoms: _572  and  _573
REMARK  235  A    between atoms: _582  and  _584
REMARK  236  A    between atoms: _584  and  _585
REMARK  237  A    between atoms: _584  and  _587
REMARK  238  A    between atoms: _587  and  _588
REMARK                            x       y       z     vdW  Elec       q    Type
REMARK                         _______ _______ _______ _____ _____    ______ ____
ROOT
ATOM      1  O   HOH     1      26.426  22.975  23.743  0.00  0.00    +0.000 OA
ENDROOT
TORSDOF 0
REMARK  Name = ../refined-set-2016/1msn/1msn_pocket.pdb
REMARK  238 active torsions:
REMARK  status: ('A' for Active; 'I' for Inactive)
REMARK    1  A    between atoms: _1  and  _3
REMARK    2  A    between atoms: _3  and  _4
REMARK    3  A    between atoms: _3  and  _6
REMARK    4  A    between atoms: _6  and  _7
REMARK    5  A    between atoms: _7  and  _8
REMARK    6  A    between atoms: _8  and  _9
REMARK    7  A    between atoms: _18  and  _20
REMARK    8  A    between atoms: _20  and  _21
REMARK    9  A    between atoms: _20  and  _23
REMARK   10  A    between atoms: _23  and  _24
REMARK   11  A    between atoms: _27  and  _29
REMARK   12  A    between atoms: _29  and  _30
REMARK   13  A    between atoms: _29  and  _32
REMARK   14  A    between atoms: _32  and  _33
REMARK   15  A    between atoms: _36  and  _38
REMARK   16  A    between atoms: _38  and  _39
REMARK   17  A    between atoms: _38  and  _41
REMARK   18  A    between atoms: _41  and  _42
REMARK   19  A    between atoms: _45  and  _47
REMARK   20  A    between atoms: _47  and  _48
REMARK   21  A    between atoms: _47  and  _50
REMARK   22  A    between atoms: _50  and  _51
REMARK   23  A    between atoms: _54  and  _56
REMARK   24  A    between atoms: _56  and  _57
REMARK   25  A    between atoms: _59  and  _61
REMARK   26  A    between atoms: _61  and  _62
REMARK   27  A    between atoms: _65  and  _67
REMARK   28  A    between atoms: _67  and  _68
REMARK   29  A    between atoms: _67  and  _70
REMARK   30  A    between atoms: _70  and  _71
REMARK   31  A    between atoms: _74  and  _76
REMARK   32  A    between atoms: _76  and  _77
REMARK   33  A    between atoms: _76  and  _79
REMARK   34  A    between atoms: _79  and  _80
REMARK   35  A    between atoms: _83  and  _85
REMARK   36  A    between atoms: _85  and  _86
REMARK   37  A    between atoms: _85  and  _88
REMARK   38  A    between atoms: _88  and  _89
REMARK   39  A    between atoms: _92  and  _94
REMARK   40  A    between atoms: _94  and  _95
REMARK   41  A    between atoms: _94  and  _97
REMARK   42  A    between atoms: _100  and  _102
REMARK   43  A    between atoms: _102  and  _103
REMARK   44  A    between atoms: _102  and  _105
REMARK   45  A    between atoms: _105  and  _106
REMARK   46  A    between atoms: _109  and  _111
REMARK   47  A    between atoms: _111  and  _112
REMARK   48  A    between atoms: _111  and  _114
REMARK   49  A    between atoms: _114  and  _115
REMARK   50  A    between atoms: _115  and  _116
REMARK   51  A    between atoms: _116  and  _117
REMARK   52  A    between atoms: _117  and  _118
REMARK   53  A    between atoms: _122  and  _124
REMARK   54  A    between atoms: _124  and  _125
REMARK   55  A    between atoms: _124  and  _127
REMARK   56  A    between atoms: _127  and  _128
REMARK   57  A    between atoms: _128  and  _129
REMARK   58  A    between atoms: _131  and  _133
REMARK   59  A    between atoms: _133  and  _134
REMARK   60  A    between atoms: _133  and  _136
REMARK   61  A    between atoms: _136  and  _137
REMARK   62  A    between atoms: _140  and  _142
REMARK   63  A    between atoms: _142  and  _143
REMARK   64  A    between atoms: _145  and  _147
REMARK   65  A    between atoms: _147  and  _148
REMARK   66  A    between atoms: _150  and  _152
REMARK   67  A    between atoms: _152  and  _153
REMARK   68  A    between atoms: _152  and  _155
REMARK   69  A    between atoms: _155  and  _156
REMARK   70  A    between atoms: _159  and  _161
REMARK   71  A    between atoms: _161  and  _162
REMARK   72  A    between atoms: _164  and  _166
REMARK   73  A    between atoms: _166  and  _167
REMARK   74  A    between atoms: _169  and  _171
REMARK   75  A    between atoms: _171  and  _172
REMARK   76  A    between atoms: _171  and  _174
REMARK   77  A    between atoms: _174  and  _175
REMARK   78  A    between atoms: _181  and  _183
REMARK   79  A    between atoms: _183  and  _184
REMARK   80  A    between atoms: _183  and  _186
REMARK   81  A    between atoms: _186  and  _187
REMARK   82  A    between atoms: _190  and  _192
REMARK   83  A    between atoms: _192  and  _193
REMARK   84  A    between atoms: _192  and  _195
REMARK   85  A    between atoms: _198  and  _200
REMARK   86  A    between atoms: _200  and  _201
REMARK   87  A    between atoms: _200  and  _203
REMARK   88  A    between atoms: _203  and  _204
REMARK   89  A    between atoms: _208  and  _209
REMARK   90  A    between atoms: _214  and  _216
REMARK   91  A    between atoms: _216  and  _217
REMARK   92  A    between atoms: _216  and  _219
REMARK   93  A    between atoms: _219  and  _220
REMARK   94  A    between atoms: _224  and  _225
REMARK   95  A    between atoms: _230  and  _232
REMARK   96  A    between atoms: _232  and  _233
REMARK   97  A    between atoms: _232  and  _235
REMARK   98  A    between atoms: _235  and  _236
REMARK   99  A    between atoms: _242  and  _244
REMARK  100  A    between atoms: _244  and  _245
REMARK  101  A    between atoms: _244  and  _247
REMARK  102  A    between atoms: _247  and  _248
REMARK  103  A    between atoms: _253  and  _255
REMARK  104  A    between atoms: _255  and  _256
REMARK  105  A    between atoms: _255  and  _258
REMARK  106  A    between atoms: _261  and  _263
REMARK  107  A    between atoms: _263  and  _264
REMARK  108  A    between atoms: _263  and  _266
REMARK  109  A    between atoms: _266  and  _267
REMARK  110  A    between atoms: _270  and  _272
REMARK  111  A    between atoms: _272  and  _273
REMARK  112  A    between atoms: _275  and  _277
REMARK  113  A    between atoms: _277  and  _278
REMARK  114  A    between atoms: _277  and  _280
REMARK  115  A    between atoms: _280  and  _281
REMARK  116  A    between atoms: _281  and  _282
REMARK  117  A    between atoms: _282  and  _283
REMARK  118  A    between atoms: _292  and  _294
REMARK  119  A    between atoms: _294  and  _295
REMARK  120  A    between atoms: _294  and  _297
REMARK  121  A    between atoms: _297  and  _298
REMARK  122  A    between atoms: _303  and  _305
REMARK  123  A    between atoms: _305  and  _306
REMARK  124  A    between atoms: _305  and  _308
REMARK  125  A    between atoms: _308  and  _309
REMARK  126  A    between atoms: _309  and  _310
REMARK  127  A    between atoms: _310  and  _311
REMARK  128  A    between atoms: _320  and  _322
REMARK  129  A    between atoms: _322  and  _323
REMARK  130  A    between atoms: _322  and  _325
REMARK  131  A    between atoms: _325  and  _326
REMARK  132  A    between atoms: _329  and  _331
REMARK  133  A    between atoms: _331  and  _332
REMARK  134  A    between atoms: _331  and  _334
REMARK  135  A    between atoms: _334  and  _335
REMARK  136  A    between atoms: _338  and  _340
REMARK  137  A    between atoms: _340  and  _341
REMARK  138  A    between atoms: _340  and  _343
REMARK  139  A    between atoms: _343  and  _344
REMARK  140  A    between atoms: _347  and  _349
REMARK  141  A    between atoms: _349  and  _350
REMARK  142  A    between atoms: _349  and  _352
REMARK  143  A    between atoms: _352  and  _353
REMARK  144  A    between atoms: _356  and  _358
REMARK  145  A    between atoms: _358  and  _359
REMARK  146  A    between atoms: _358  and  _361
REMARK  147  A    between atoms: _361  and  _362
REMARK  148  A    between atoms: _365  and  _367
REMARK  149  A    between atoms: _367  and  _368
REMARK  150  A    between atoms: _370  and  _372
REMARK  151  A    between atoms: _372  and  _373
REMARK  152  A    between atoms: _376  and  _378
REMARK  153  A    between atoms: _378  and  _379
REMARK  154  A    between atoms: _378  and  _381
REMARK  155  A    between atoms: _381  and  _382
REMARK  156  A    between atoms: _385  and  _387
REMARK  157  A    between atoms: _387  and  _388
REMARK  158  A    between atoms: _387  and  _390
REMARK  159  A    between atoms: _390  and  _391
REMARK  160  A    between atoms: _394  and  _396
REMARK  161  A    between atoms: _396  and  _397
REMARK  162  A    between atoms: _396  and  _399
REMARK  163  A    between atoms: _399  and  _400
REMARK  164  A    between atoms: _403  and  _405
REMARK  165  A    between atoms: _405  and  _406
REMARK  166  A    between atoms: _405  and  _408
REMARK  167  A    between atoms: _411  and  _413
REMARK  168  A    between atoms: _413  and  _414
REMARK  169  A    between atoms: _413  and  _416
REMARK  170  A    between atoms: _416  and  _417
REMARK  171  A    between atoms: _417  and  _418
REMARK  172  A    between atoms: _418  and  _419
REMARK  173  A    between atoms: _419  and  _420
REMARK  174  A    between atoms: _424  and  _426
REMARK  175  A    between atoms: _426  and  _427
REMARK  176  A    between atoms: _426  and  _429
REMARK  177  A    between atoms: _429  and  _430
REMARK  178  A    between atoms: _430  and  _431
REMARK  179  A    between atoms: _433  and  _435
REMARK  180  A    between atoms: _435  and  _436
REMARK  181  A    between atoms: _435  and  _438
REMARK  182  A    between atoms: _438  and  _439
REMARK  183  A    between atoms: _442  and  _444
REMARK  184  A    between atoms: _444  and  _445
REMARK  185  A    between atoms: _447  and  _449
REMARK  186  A    between atoms: _449  and  _450
REMARK  187  A    between atoms: _452  and  _454
REMARK  188  A    between atoms: _454  and  _455
REMARK  189  A    between atoms: _454  and  _457
REMARK  190  A    between atoms: _457  and  _458
REMARK  191  A    between atoms: _461  and  _463
REMARK  192  A    between atoms: _463  and  _464
REMARK  193  A    between atoms: _466  and  _468
REMARK  194  A    between atoms: _468  and  _469
REMARK  195  A    between atoms: _471  and  _473
REMARK  196  A    between atoms: _473  and  _474
REMARK  197  A    between atoms: _473  and  _476
REMARK  198  A    between atoms: _476  and  _477
REMARK  199  A    between atoms: _480  and  _482
REMARK  200  A    between atoms: _482  and  _483
REMARK  201  A    between atoms: _482  and  _485
REMARK  202  A    between atoms: _488  and  _490
REMARK  203  A    between atoms: _490  and  _491
REMARK  204  A    between atoms: _490  and  _493
REMARK  205  A    between atoms: _493  and  _494
REMARK  206  A    between atoms: _498  and  _499
REMARK  207  A    between atoms: _504  and  _506
REMARK  208  A    between atoms: _506  and  _507
REMARK  209  A    between atoms: _506  and  _509
REMARK  210  A    between atoms: _509  and  _510
REMARK  211  A    between atoms: _514  and  _515
REMARK  212  A    between atoms: _520  and  _522
REMARK  213  A    between atoms: _522  and  _523
REMARK  214  A    between atoms: _522  and  _525
REMARK  215  A    between atoms: _525  and  _526
REMARK  216  A    between atoms: _532  and  _534
REMARK  217  A    between atoms: _534  and  _535
REMARK  218  A    between atoms: _534  and  _537
REMARK  219  A    between atoms: _537  and  _538
REMARK  220  A    between atoms: _543  and  _545
REMARK  221  A    between atoms: _545  and  _546
REMARK  222  A    between atoms: _545  and  _548
REMARK  223  A    between atoms: _551  and  _553
REMARK  224  A    between atoms: _553  and  _554
REMARK  225  A    between atoms: _553  and  _556
REMARK  226  A    between atoms: _556  and  _557
REMARK  227  A    between atoms: _560  and  _562
REMARK  228  A    between atoms: _562  and  _563
REMARK  229  A    between atoms: _565  and  _567
REMARK  230  A    between atoms: _567  and  _568
REMARK  231  A    between atoms: _567  and  _570
REMARK  232  A    between atoms: _570  and  _571
REMARK  233  A    between atoms: _571  and  _572
REMARK  234  A    between atoms: _572  and  _573
REMARK  235  A    between atoms: _582  and  _584
REMARK  236  A    between atoms: _584  and  _585
REMARK  237  A    between atoms: _584  and  _587
REMARK  238  A    between atoms: _587  and  _588
REMARK                            x       y       z     vdW  Elec       q    Type
REMARK                         _______ _______ _______ _____ _____    ______ ____
ROOT
ATOM      1  O   HOH     1      10.966  17.580  13.960  0.00  0.00    +0.000 OA
ENDROOT
TORSDOF 0
REMARK  Name = ../refined-set-2016/1msn/1msn_pocket.pdb
REMARK  238 active torsions:
REMARK  status: ('A' for Active; 'I' for Inactive)
REMARK    1  A    between atoms: _1  and  _3
REMARK    2  A    between atoms: _3  and  _4
REMARK    3  A    between atoms: _3  and  _6
REMARK    4  A    between atoms: _6  and  _7
REMARK    5  A    between atoms: _7  and  _8
REMARK    6  A    between atoms: _8  and  _9
REMARK    7  A    between atoms: _18  and  _20
REMARK    8  A    between atoms: _20  and  _21
REMARK    9  A    between atoms: _20  and  _23
REMARK   10  A    between atoms: _23  and  _24
REMARK   11  A    between atoms: _27  and  _29
REMARK   12  A    between atoms: _29  and  _30
REMARK   13  A    between atoms: _29  and  _32
REMARK   14  A    between atoms: _32  and  _33
REMARK   15  A    between atoms: _36  and  _38
REMARK   16  A    between atoms: _38  and  _39
REMARK   17  A    between atoms: _38  and  _41
REMARK   18  A    between atoms: _41  and  _42
REMARK   19  A    between atoms: _45  and  _47
REMARK   20  A    between atoms: _47  and  _48
REMARK   21  A    between atoms: _47  and  _50
REMARK   22  A    between atoms: _50  and  _51
REMARK   23  A    between atoms: _54  and  _56
REMARK   24  A    between atoms: _56  and  _57
REMARK   25  A    between atoms: _59  and  _61
REMARK   26  A    between atoms: _61  and  _62
REMARK   27  A    between atoms: _65  and  _67
REMARK   28  A    between atoms: _67  and  _68
REMARK   29  A    between atoms: _67  and  _70
REMARK   30  A    between atoms: _70  and  _71
REMARK   31  A    between atoms: _74  and  _76
REMARK   32  A    between atoms: _76  and  _77
REMARK   33  A    between atoms: _76  and  _79
REMARK   34  A    between atoms: _79  and  _80
REMARK   35  A    between atoms: _83  and  _85
REMARK   36  A    between atoms: _85  and  _86
REMARK   37  A    between atoms: _85  and  _88
REMARK   38  A    between atoms: _88  and  _89
REMARK   39  A    between atoms: _92  and  _94
REMARK   40  A    between atoms: _94  and  _95
REMARK   41  A    between atoms: _94  and  _97
REMARK   42  A    between atoms: _100  and  _102
REMARK   43  A    between atoms: _102  and  _103
REMARK   44  A    between atoms: _102  and  _105
REMARK   45  A    between atoms: _105  and  _106
REMARK   46  A    between atoms: _109  and  _111
REMARK   47  A    between atoms: _111  and  _112
REMARK   48  A    between atoms: _111  and  _114
REMARK   49  A    between atoms: _114  and  _115
REMARK   50  A    between atoms: _115  and  _116
REMARK   51  A    between atoms: _116  and  _117
REMARK   52  A    between atoms: _117  and  _118
REMARK   53  A    between atoms: _122  and  _124
REMARK   54  A    between atoms: _124  and  _125
REMARK   55  A    between atoms: _124  and  _127
REMARK   56  A    between atoms: _127  and  _128
REMARK   57  A    between atoms: _128  and  _129
REMARK   58  A    between atoms: _131  and  _133
REMARK   59  A    between atoms: _133  and  _134
REMARK   60  A    between atoms: _133  and  _136
REMARK   61  A    between atoms: _136  and  _137
REMARK   62  A    between atoms: _140  and  _142
REMARK   63  A    between atoms: _142  and  _143
REMARK   64  A    between atoms: _145  and  _147
REMARK   65  A    between atoms: _147  and  _148
REMARK   66  A    between atoms: _150  and  _152
REMARK   67  A    between atoms: _152  and  _153
REMARK   68  A    between atoms: _152  and  _155
REMARK   69  A    between atoms: _155  and  _156
REMARK   70  A    between atoms: _159  and  _161
REMARK   71  A    between atoms: _161  and  _162
REMARK   72  A    between atoms: _164  and  _166
REMARK   73  A    between atoms: _166  and  _167
REMARK   74  A    between atoms: _169  and  _171
REMARK   75  A    between atoms: _171  and  _172
REMARK   76  A    between atoms: _171  and  _174
REMARK   77  A    between atoms: _174  and  _175
REMARK   78  A    between atoms: _181  and  _183
REMARK   79  A    between atoms: _183  and  _184
REMARK   80  A    between atoms: _183  and  _186
REMARK   81  A    between atoms: _186  and  _187
REMARK   82  A    between atoms: _190  and  _192
REMARK   83  A    between atoms: _192  and  _193
REMARK   84  A    between atoms: _192  and  _195
REMARK   85  A    between atoms: _198  and  _200
REMARK   86  A    between atoms: _200  and  _201
REMARK   87  A    between atoms: _200  and  _203
REMARK   88  A    between atoms: _203  and  _204
REMARK   89  A    between atoms: _208  and  _209
REMARK   90  A    between atoms: _214  and  _216
REMARK   91  A    between atoms: _216  and  _217
REMARK   92  A    between atoms: _216  and  _219
REMARK   93  A    between atoms: _219  and  _220
REMARK   94  A    between atoms: _224  and  _225
REMARK   95  A    between atoms: _230  and  _232
REMARK   96  A    between atoms: _232  and  _233
REMARK   97  A    between atoms: _232  and  _235
REMARK   98  A    between atoms: _235  and  _236
REMARK   99  A    between atoms: _242  and  _244
REMARK  100  A    between atoms: _244  and  _245
REMARK  101  A    between atoms: _244  and  _247
REMARK  102  A    between atoms: _247  and  _248
REMARK  103  A    between atoms: _253  and  _255
REMARK  104  A    between atoms: _255  and  _256
REMARK  105  A    between atoms: _255  and  _258
REMARK  106  A    between atoms: _261  and  _263
REMARK  107  A    between atoms: _263  and  _264
REMARK  108  A    between atoms: _263  and  _266
REMARK  109  A    between atoms: _266  and  _267
REMARK  110  A    between atoms: _270  and  _272
REMARK  111  A    between atoms: _272  and  _273
REMARK  112  A    between atoms: _275  and  _277
REMARK  113  A    between atoms: _277  and  _278
REMARK  114  A    between atoms: _277  and  _280
REMARK  115  A    between atoms: _280  and  _281
REMARK  116  A    between atoms: _281  and  _282
REMARK  117  A    between atoms: _282  and  _283
REMARK  118  A    between atoms: _292  and  _294
REMARK  119  A    between atoms: _294  and  _295
REMARK  120  A    between atoms: _294  and  _297
REMARK  121  A    between atoms: _297  and  _298
REMARK  122  A    between atoms: _303  and  _305
REMARK  123  A    between atoms: _305  and  _306
REMARK  124  A    between atoms: _305  and  _308
REMARK  125  A    between atoms: _308  and  _309
REMARK  126  A    between atoms: _309  and  _310
REMARK  127  A    between atoms: _310  and  _311
REMARK  128  A    between atoms: _320  and  _322
REMARK  129  A    between atoms: _322  and  _323
REMARK  130  A    between atoms: _322  and  _325
REMARK  131  A    between atoms: _325  and  _326
REMARK  132  A    between atoms: _329  and  _331
REMARK  133  A    between atoms: _331  and  _332
REMARK  134  A    between atoms: _331  and  _334
REMARK  135  A    between atoms: _334  and  _335
REMARK  136  A    between atoms: _338  and  _340
REMARK  137  A    between atoms: _340  and  _341
REMARK  138  A    between atoms: _340  and  _343
REMARK  139  A    between atoms: _343  and  _344
REMARK  140  A    between atoms: _347  and  _349
REMARK  141  A    between atoms: _349  and  _350
REMARK  142  A    between atoms: _349  and  _352
REMARK  143  A    between atoms: _352  and  _353
REMARK  144  A    between atoms: _356  and  _358
REMARK  145  A    between atoms: _358  and  _359
REMARK  146  A    between atoms: _358  and  _361
REMARK  147  A    between atoms: _361  and  _362
REMARK  148  A    between atoms: _365  and  _367
REMARK  149  A    between atoms: _367  and  _368
REMARK  150  A    between atoms: _370  and  _372
REMARK  151  A    between atoms: _372  and  _373
REMARK  152  A    between atoms: _376  and  _378
REMARK  153  A    between atoms: _378  and  _379
REMARK  154  A    between atoms: _378  and  _381
REMARK  155  A    between atoms: _381  and  _382
REMARK  156  A    between atoms: _385  and  _387
REMARK  157  A    between atoms: _387  and  _388
REMARK  158  A    between atoms: _387  and  _390
REMARK  159  A    between atoms: _390  and  _391
REMARK  160  A    between atoms: _394  and  _396
REMARK  161  A    between atoms: _396  and  _397
REMARK  162  A    between atoms: _396  and  _399
REMARK  163  A    between atoms: _399  and  _400
REMARK  164  A    between atoms: _403  and  _405
REMARK  165  A    between atoms: _405  and  _406
REMARK  166  A    between atoms: _405  and  _408
REMARK  167  A    between atoms: _411  and  _413
REMARK  168  A    between atoms: _413  and  _414
REMARK  169  A    between atoms: _413  and  _416
REMARK  170  A    between atoms: _416  and  _417
REMARK  171  A    between atoms: _417  and  _418
REMARK  172  A    between atoms: _418  and  _419
REMARK  173  A    between atoms: _419  and  _420
REMARK  174  A    between atoms: _424  and  _426
REMARK  175  A    between atoms: _426  and  _427
REMARK  176  A    between atoms: _426  and  _429
REMARK  177  A    between atoms: _429  and  _430
REMARK  178  A    between atoms: _430  and  _431
REMARK  179  A    between atoms: _433  and  _435
REMARK  180  A    between atoms: _435  and  _436
REMARK  181  A    between atoms: _435  and  _438
REMARK  182  A    between atoms: _438  and  _439
REMARK  183  A    between atoms: _442  and  _444
REMARK  184  A    between atoms: _444  and  _445
REMARK  185  A    between atoms: _447  and  _449
REMARK  186  A    between atoms: _449  and  _450
REMARK  187  A    between atoms: _452  and  _454
REMARK  188  A    between atoms: _454  and  _455
REMARK  189  A    between atoms: _454  and  _457
REMARK  190  A    between atoms: _457  and  _458
REMARK  191  A    between atoms: _461  and  _463
REMARK  192  A    between atoms: _463  and  _464
REMARK  193  A    between atoms: _466  and  _468
REMARK  194  A    between atoms: _468  and  _469
REMARK  195  A    between atoms: _471  and  _473
REMARK  196  A    between atoms: _473  and  _474
REMARK  197  A    between atoms: _473  and  _476
REMARK  198  A    between atoms: _476  and  _477
REMARK  199  A    between atoms: _480  and  _482
REMARK  200  A    between atoms: _482  and  _483
REMARK  201  A    between atoms: _482  and  _485
REMARK  202  A    between atoms: _488  and  _490
REMARK  203  A    between atoms: _490  and  _491
REMARK  204  A    between atoms: _490  and  _493
REMARK  205  A    between atoms: _493  and  _494
REMARK  206  A    between atoms: _498  and  _499
REMARK  207  A    between atoms: _504  and  _506
REMARK  208  A    between atoms: _506  and  _507
REMARK  209  A    between atoms: _506  and  _509
REMARK  210  A    between atoms: _509  and  _510
REMARK  211  A    between atoms: _514  and  _515
REMARK  212  A    between atoms: _520  and  _522
REMARK  213  A    between atoms: _522  and  _523
REMARK  214  A    between atoms: _522  and  _525
REMARK  215  A    between atoms: _525  and  _526
REMARK  216  A    between atoms: _532  and  _534
REMARK  217  A    between atoms: _534  and  _535
REMARK  218  A    between atoms: _534  and  _537
REMARK  219  A    between atoms: _537  and  _538
REMARK  220  A    between atoms: _543  and  _545
REMARK  221  A    between atoms: _545  and  _546
REMARK  222  A    between atoms: _545  and  _548
REMARK  223  A    between atoms: _551  and  _553
REMARK  224  A    between atoms: _553  and  _554
REMARK  225  A    between atoms: _553  and  _556
REMARK  226  A    between atoms: _556  and  _557
REMARK  227  A    between atoms: _560  and  _562
REMARK  228  A    between atoms: _562  and  _563
REMARK  229  A    between atoms: _565  and  _567
REMARK  230  A    between atoms: _567  and  _568
REMARK  231  A    between atoms: _567  and  _570
REMARK  232  A    between atoms: _570  and  _571
REMARK  233  A    between atoms: _571  and  _572
REMARK  234  A    between atoms: _572  and  _573
REMARK  235  A    between atoms: _582  and  _584
REMARK  236  A    between atoms: _584  and  _585
REMARK  237  A    between atoms: _584  and  _587
REMARK  238  A    between atoms: _587  and  _588
REMARK                            x       y       z     vdW  Elec       q    Type
REMARK                         _______ _______ _______ _____ _____    ______ ____
ROOT
ATOM      1  O   HOH     1      10.409  14.782  16.287  0.00  0.00    +0.000 OA
ENDROOT
TORSDOF 0
REMARK  Name = ../refined-set-2016/1msn/1msn_pocket.pdb
REMARK  238 active torsions:
REMARK  status: ('A' for Active; 'I' for Inactive)
REMARK    1  A    between atoms: _1  and  _3
REMARK    2  A    between atoms: _3  and  _4
REMARK    3  A    between atoms: _3  and  _6
REMARK    4  A    between atoms: _6  and  _7
REMARK    5  A    between atoms: _7  and  _8
REMARK    6  A    between atoms: _8  and  _9
REMARK    7  A    between atoms: _18  and  _20
REMARK    8  A    between atoms: _20  and  _21
REMARK    9  A    between atoms: _20  and  _23
REMARK   10  A    between atoms: _23  and  _24
REMARK   11  A    between atoms: _27  and  _29
REMARK   12  A    between atoms: _29  and  _30
REMARK   13  A    between atoms: _29  and  _32
REMARK   14  A    between atoms: _32  and  _33
REMARK   15  A    between atoms: _36  and  _38
REMARK   16  A    between atoms: _38  and  _39
REMARK   17  A    between atoms: _38  and  _41
REMARK   18  A    between atoms: _41  and  _42
REMARK   19  A    between atoms: _45  and  _47
REMARK   20  A    between atoms: _47  and  _48
REMARK   21  A    between atoms: _47  and  _50
REMARK   22  A    between atoms: _50  and  _51
REMARK   23  A    between atoms: _54  and  _56
REMARK   24  A    between atoms: _56  and  _57
REMARK   25  A    between atoms: _59  and  _61
REMARK   26  A    between atoms: _61  and  _62
REMARK   27  A    between atoms: _65  and  _67
REMARK   28  A    between atoms: _67  and  _68
REMARK   29  A    between atoms: _67  and  _70
REMARK   30  A    between atoms: _70  and  _71
REMARK   31  A    between atoms: _74  and  _76
REMARK   32  A    between atoms: _76  and  _77
REMARK   33  A    between atoms: _76  and  _79
REMARK   34  A    between atoms: _79  and  _80
REMARK   35  A    between atoms: _83  and  _85
REMARK   36  A    between atoms: _85  and  _86
REMARK   37  A    between atoms: _85  and  _88
REMARK   38  A    between atoms: _88  and  _89
REMARK   39  A    between atoms: _92  and  _94
REMARK   40  A    between atoms: _94  and  _95
REMARK   41  A    between atoms: _94  and  _97
REMARK   42  A    between atoms: _100  and  _102
REMARK   43  A    between atoms: _102  and  _103
REMARK   44  A    between atoms: _102  and  _105
REMARK   45  A    between atoms: _105  and  _106
REMARK   46  A    between atoms: _109  and  _111
REMARK   47  A    between atoms: _111  and  _112
REMARK   48  A    between atoms: _111  and  _114
REMARK   49  A    between atoms: _114  and  _115
REMARK   50  A    between atoms: _115  and  _116
REMARK   51  A    between atoms: _116  and  _117
REMARK   52  A    between atoms: _117  and  _118
REMARK   53  A    between atoms: _122  and  _124
REMARK   54  A    between atoms: _124  and  _125
REMARK   55  A    between atoms: _124  and  _127
REMARK   56  A    between atoms: _127  and  _128
REMARK   57  A    between atoms: _128  and  _129
REMARK   58  A    between atoms: _131  and  _133
REMARK   59  A    between atoms: _133  and  _134
REMARK   60  A    between atoms: _133  and  _136
REMARK   61  A    between atoms: _136  and  _137
REMARK   62  A    between atoms: _140  and  _142
REMARK   63  A    between atoms: _142  and  _143
REMARK   64  A    between atoms: _145  and  _147
REMARK   65  A    between atoms: _147  and  _148
REMARK   66  A    between atoms: _150  and  _152
REMARK   67  A    between atoms: _152  and  _153
REMARK   68  A    between atoms: _152  and  _155
REMARK   69  A    between atoms: _155  and  _156
REMARK   70  A    between atoms: _159  and  _161
REMARK   71  A    between atoms: _161  and  _162
REMARK   72  A    between atoms: _164  and  _166
REMARK   73  A    between atoms: _166  and  _167
REMARK   74  A    between atoms: _169  and  _171
REMARK   75  A    between atoms: _171  and  _172
REMARK   76  A    between atoms: _171  and  _174
REMARK   77  A    between atoms: _174  and  _175
REMARK   78  A    between atoms: _181  and  _183
REMARK   79  A    between atoms: _183  and  _184
REMARK   80  A    between atoms: _183  and  _186
REMARK   81  A    between atoms: _186  and  _187
REMARK   82  A    between atoms: _190  and  _192
REMARK   83  A    between atoms: _192  and  _193
REMARK   84  A    between atoms: _192  and  _195
REMARK   85  A    between atoms: _198  and  _200
REMARK   86  A    between atoms: _200  and  _201
REMARK   87  A    between atoms: _200  and  _203
REMARK   88  A    between atoms: _203  and  _204
REMARK   89  A    between atoms: _208  and  _209
REMARK   90  A    between atoms: _214  and  _216
REMARK   91  A    between atoms: _216  and  _217
REMARK   92  A    between atoms: _216  and  _219
REMARK   93  A    between atoms: _219  and  _220
REMARK   94  A    between atoms: _224  and  _225
REMARK   95  A    between atoms: _230  and  _232
REMARK   96  A    between atoms: _232  and  _233
REMARK   97  A    between atoms: _232  and  _235
REMARK   98  A    between atoms: _235  and  _236
REMARK   99  A    between atoms: _242  and  _244
REMARK  100  A    between atoms: _244  and  _245
REMARK  101  A    between atoms: _244  and  _247
REMARK  102  A    between atoms: _247  and  _248
REMARK  103  A    between atoms: _253  and  _255
REMARK  104  A    between atoms: _255  and  _256
REMARK  105  A    between atoms: _255  and  _258
REMARK  106  A    between atoms: _261  and  _263
REMARK  107  A    between atoms: _263  and  _264
REMARK  108  A    between atoms: _263  and  _266
REMARK  109  A    between atoms: _266  and  _267
REMARK  110  A    between atoms: _270  and  _272
REMARK  111  A    between atoms: _272  and  _273
REMARK  112  A    between atoms: _275  and  _277
REMARK  113  A    between atoms: _277  and  _278
REMARK  114  A    between atoms: _277  and  _280
REMARK  115  A    between atoms: _280  and  _281
REMARK  116  A    between atoms: _281  and  _282
REMARK  117  A    between atoms: _282  and  _283
REMARK  118  A    between atoms: _292  and  _294
REMARK  119  A    between atoms: _294  and  _295
REMARK  120  A    between atoms: _294  and  _297
REMARK  121  A    between atoms: _297  and  _298
REMARK  122  A    between atoms: _303  and  _305
REMARK  123  A    between atoms: _305  and  _306
REMARK  124  A    between atoms: _305  and  _308
REMARK  125  A    between atoms: _308  and  _309
REMARK  126  A    between atoms: _309  and  _310
REMARK  127  A    between atoms: _310  and  _311
REMARK  128  A    between atoms: _320  and  _322
REMARK  129  A    between atoms: _322  and  _323
REMARK  130  A    between atoms: _322  and  _325
REMARK  131  A    between atoms: _325  and  _326
REMARK  132  A    between atoms: _329  and  _331
REMARK  133  A    between atoms: _331  and  _332
REMARK  134  A    between atoms: _331  and  _334
REMARK  135  A    between atoms: _334  and  _335
REMARK  136  A    between atoms: _338  and  _340
REMARK  137  A    between atoms: _340  and  _341
REMARK  138  A    between atoms: _340  and  _343
REMARK  139  A    between atoms: _343  and  _344
REMARK  140  A    between atoms: _347  and  _349
REMARK  141  A    between atoms: _349  and  _350
REMARK  142  A    between atoms: _349  and  _352
REMARK  143  A    between atoms: _352  and  _353
REMARK  144  A    between atoms: _356  and  _358
REMARK  145  A    between atoms: _358  and  _359
REMARK  146  A    between atoms: _358  and  _361
REMARK  147  A    between atoms: _361  and  _362
REMARK  148  A    between atoms: _365  and  _367
REMARK  149  A    between atoms: _367  and  _368
REMARK  150  A    between atoms: _370  and  _372
REMARK  151  A    between atoms: _372  and  _373
REMARK  152  A    between atoms: _376  and  _378
REMARK  153  A    between atoms: _378  and  _379
REMARK  154  A    between atoms: _378  and  _381
REMARK  155  A    between atoms: _381  and  _382
REMARK  156  A    between atoms: _385  and  _387
REMARK  157  A    between atoms: _387  and  _388
REMARK  158  A    between atoms: _387  and  _390
REMARK  159  A    between atoms: _390  and  _391
REMARK  160  A    between atoms: _394  and  _396
REMARK  161  A    between atoms: _396  and  _397
REMARK  162  A    between atoms: _396  and  _399
REMARK  163  A    between atoms: _399  and  _400
REMARK  164  A    between atoms: _403  and  _405
REMARK  165  A    between atoms: _405  and  _406
REMARK  166  A    between atoms: _405  and  _408
REMARK  167  A    between atoms: _411  and  _413
REMARK  168  A    between atoms: _413  and  _414
REMARK  169  A    between atoms: _413  and  _416
REMARK  170  A    between atoms: _416  and  _417
REMARK  171  A    between atoms: _417  and  _418
REMARK  172  A    between atoms: _418  and  _419
REMARK  173  A    between atoms: _419  and  _420
REMARK  174  A    between atoms: _424  and  _426
REMARK  175  A    between atoms: _426  and  _427
REMARK  176  A    between atoms: _426  and  _429
REMARK  177  A    between atoms: _429  and  _430
REMARK  178  A    between atoms: _430  and  _431
REMARK  179  A    between atoms: _433  and  _435
REMARK  180  A    between atoms: _435  and  _436
REMARK  181  A    between atoms: _435  and  _438
REMARK  182  A    between atoms: _438  and  _439
REMARK  183  A    between atoms: _442  and  _444
REMARK  184  A    between atoms: _444  and  _445
REMARK  185  A    between atoms: _447  and  _449
REMARK  186  A    between atoms: _449  and  _450
REMARK  187  A    between atoms: _452  and  _454
REMARK  188  A    between atoms: _454  and  _455
REMARK  189  A    between atoms: _454  and  _457
REMARK  190  A    between atoms: _457  and  _458
REMARK  191  A    between atoms: _461  and  _463
REMARK  192  A    between atoms: _463  and  _464
REMARK  193  A    between atoms: _466  and  _468
REMARK  194  A    between atoms: _468  and  _469
REMARK  195  A    between atoms: _471  and  _473
REMARK  196  A    between atoms: _473  and  _474
REMARK  197  A    between atoms: _473  and  _476
REMARK  198  A    between atoms: _476  and  _477
REMARK  199  A    between atoms: _480  and  _482
REMARK  200  A    between atoms: _482  and  _483
REMARK  201  A    between atoms: _482  and  _485
REMARK  202  A    between atoms: _488  and  _490
REMARK  203  A    between atoms: _490  and  _491
REMARK  204  A    between atoms: _490  and  _493
REMARK  205  A    between atoms: _493  and  _494
REMARK  206  A    between atoms: _498  and  _499
REMARK  207  A    between atoms: _504  and  _506
REMARK  208  A    between atoms: _506  and  _507
REMARK  209  A    between atoms: _506  and  _509
REMARK  210  A    between atoms: _509  and  _510
REMARK  211  A    between atoms: _514  and  _515
REMARK  212  A    between atoms: _520  and  _522
REMARK  213  A    between atoms: _522  and  _523
REMARK  214  A    between atoms: _522  and  _525
REMARK  215  A    between atoms: _525  and  _526
REMARK  216  A    between atoms: _532  and  _534
REMARK  217  A    between atoms: _534  and  _535
REMARK  218  A    between atoms: _534  and  _537
REMARK  219  A    between atoms: _537  and  _538
REMARK  220  A    between atoms: _543  and  _545
REMARK  221  A    between atoms: _545  and  _546
REMARK  222  A    between atoms: _545  and  _548
REMARK  223  A    between atoms: _551  and  _553
REMARK  224  A    between atoms: _553  and  _554
REMARK  225  A    between atoms: _553  and  _556
REMARK  226  A    between atoms: _556  and  _557
REMARK  227  A    between atoms: _560  and  _562
REMARK  228  A    between atoms: _562  and  _563
REMARK  229  A    between atoms: _565  and  _567
REMARK  230  A    between atoms: _567  and  _568
REMARK  231  A    between atoms: _567  and  _570
REMARK  232  A    between atoms: _570  and  _571
REMARK  233  A    between atoms: _571  and  _572
REMARK  234  A    between atoms: _572  and  _573
REMARK  235  A    between atoms: _582  and  _584
REMARK  236  A    between atoms: _584  and  _585
REMARK  237  A    between atoms: _584  and  _587
REMARK  238  A    between atoms: _587  and  _588
REMARK                            x       y       z     vdW  Elec       q    Type
REMARK                         _______ _______ _______ _____ _____    ______ ____
ROOT
ATOM      1  O   HOH     1       6.676  16.308  25.218  0.00  0.00    +0.000 OA
ENDROOT
TORSDOF 0
REMARK  Name = ../refined-set-2016/1msn/1msn_pocket.pdb
REMARK  238 active torsions:
REMARK  status: ('A' for Active; 'I' for Inactive)
REMARK    1  A    between atoms: _1  and  _3
REMARK    2  A    between atoms: _3  and  _4
REMARK    3  A    between atoms: _3  and  _6
REMARK    4  A    between atoms: _6  and  _7
REMARK    5  A    between atoms: _7  and  _8
REMARK    6  A    between atoms: _8  and  _9
REMARK    7  A    between atoms: _18  and  _20
REMARK    8  A    between atoms: _20  and  _21
REMARK    9  A    between atoms: _20  and  _23
REMARK   10  A    between atoms: _23  and  _24
REMARK   11  A    between atoms: _27  and  _29
REMARK   12  A    between atoms: _29  and  _30
REMARK   13  A    between atoms: _29  and  _32
REMARK   14  A    between atoms: _32  and  _33
REMARK   15  A    between atoms: _36  and  _38
REMARK   16  A    between atoms: _38  and  _39
REMARK   17  A    between atoms: _38  and  _41
REMARK   18  A    between atoms: _41  and  _42
REMARK   19  A    between atoms: _45  and  _47
REMARK   20  A    between atoms: _47  and  _48
REMARK   21  A    between atoms: _47  and  _50
REMARK   22  A    between atoms: _50  and  _51
REMARK   23  A    between atoms: _54  and  _56
REMARK   24  A    between atoms: _56  and  _57
REMARK   25  A    between atoms: _59  and  _61
REMARK   26  A    between atoms: _61  and  _62
REMARK   27  A    between atoms: _65  and  _67
REMARK   28  A    between atoms: _67  and  _68
REMARK   29  A    between atoms: _67  and  _70
REMARK   30  A    between atoms: _70  and  _71
REMARK   31  A    between atoms: _74  and  _76
REMARK   32  A    between atoms: _76  and  _77
REMARK   33  A    between atoms: _76  and  _79
REMARK   34  A    between atoms: _79  and  _80
REMARK   35  A    between atoms: _83  and  _85
REMARK   36  A    between atoms: _85  and  _86
REMARK   37  A    between atoms: _85  and  _88
REMARK   38  A    between atoms: _88  and  _89
REMARK   39  A    between atoms: _92  and  _94
REMARK   40  A    between atoms: _94  and  _95
REMARK   41  A    between atoms: _94  and  _97
REMARK   42  A    between atoms: _100  and  _102
REMARK   43  A    between atoms: _102  and  _103
REMARK   44  A    between atoms: _102  and  _105
REMARK   45  A    between atoms: _105  and  _106
REMARK   46  A    between atoms: _109  and  _111
REMARK   47  A    between atoms: _111  and  _112
REMARK   48  A    between atoms: _111  and  _114
REMARK   49  A    between atoms: _114  and  _115
REMARK   50  A    between atoms: _115  and  _116
REMARK   51  A    between atoms: _116  and  _117
REMARK   52  A    between atoms: _117  and  _118
REMARK   53  A    between atoms: _122  and  _124
REMARK   54  A    between atoms: _124  and  _125
REMARK   55  A    between atoms: _124  and  _127
REMARK   56  A    between atoms: _127  and  _128
REMARK   57  A    between atoms: _128  and  _129
REMARK   58  A    between atoms: _131  and  _133
REMARK   59  A    between atoms: _133  and  _134
REMARK   60  A    between atoms: _133  and  _136
REMARK   61  A    between atoms: _136  and  _137
REMARK   62  A    between atoms: _140  and  _142
REMARK   63  A    between atoms: _142  and  _143
REMARK   64  A    between atoms: _145  and  _147
REMARK   65  A    between atoms: _147  and  _148
REMARK   66  A    between atoms: _150  and  _152
REMARK   67  A    between atoms: _152  and  _153
REMARK   68  A    between atoms: _152  and  _155
REMARK   69  A    between atoms: _155  and  _156
REMARK   70  A    between atoms: _159  and  _161
REMARK   71  A    between atoms: _161  and  _162
REMARK   72  A    between atoms: _164  and  _166
REMARK   73  A    between atoms: _166  and  _167
REMARK   74  A    between atoms: _169  and  _171
REMARK   75  A    between atoms: _171  and  _172
REMARK   76  A    between atoms: _171  and  _174
REMARK   77  A    between atoms: _174  and  _175
REMARK   78  A    between atoms: _181  and  _183
REMARK   79  A    between atoms: _183  and  _184
REMARK   80  A    between atoms: _183  and  _186
REMARK   81  A    between atoms: _186  and  _187
REMARK   82  A    between atoms: _190  and  _192
REMARK   83  A    between atoms: _192  and  _193
REMARK   84  A    between atoms: _192  and  _195
REMARK   85  A    between atoms: _198  and  _200
REMARK   86  A    between atoms: _200  and  _201
REMARK   87  A    between atoms: _200  and  _203
REMARK   88  A    between atoms: _203  and  _204
REMARK   89  A    between atoms: _208  and  _209
REMARK   90  A    between atoms: _214  and  _216
REMARK   91  A    between atoms: _216  and  _217
REMARK   92  A    between atoms: _216  and  _219
REMARK   93  A    between atoms: _219  and  _220
REMARK   94  A    between atoms: _224  and  _225
REMARK   95  A    between atoms: _230  and  _232
REMARK   96  A    between atoms: _232  and  _233
REMARK   97  A    between atoms: _232  and  _235
REMARK   98  A    between atoms: _235  and  _236
REMARK   99  A    between atoms: _242  and  _244
REMARK  100  A    between atoms: _244  and  _245
REMARK  101  A    between atoms: _244  and  _247
REMARK  102  A    between atoms: _247  and  _248
REMARK  103  A    between atoms: _253  and  _255
REMARK  104  A    between atoms: _255  and  _256
REMARK  105  A    between atoms: _255  and  _258
REMARK  106  A    between atoms: _261  and  _263
REMARK  107  A    between atoms: _263  and  _264
REMARK  108  A    between atoms: _263  and  _266
REMARK  109  A    between atoms: _266  and  _267
REMARK  110  A    between atoms: _270  and  _272
REMARK  111  A    between atoms: _272  and  _273
REMARK  112  A    between atoms: _275  and  _277
REMARK  113  A    between atoms: _277  and  _278
REMARK  114  A    between atoms: _277  and  _280
REMARK  115  A    between atoms: _280  and  _281
REMARK  116  A    between atoms: _281  and  _282
REMARK  117  A    between atoms: _282  and  _283
REMARK  118  A    between atoms: _292  and  _294
REMARK  119  A    between atoms: _294  and  _295
REMARK  120  A    between atoms: _294  and  _297
REMARK  121  A    between atoms: _297  and  _298
REMARK  122  A    between atoms: _303  and  _305
REMARK  123  A    between atoms: _305  and  _306
REMARK  124  A    between atoms: _305  and  _308
REMARK  125  A    between atoms: _308  and  _309
REMARK  126  A    between atoms: _309  and  _310
REMARK  127  A    between atoms: _310  and  _311
REMARK  128  A    between atoms: _320  and  _322
REMARK  129  A    between atoms: _322  and  _323
REMARK  130  A    between atoms: _322  and  _325
REMARK  131  A    between atoms: _325  and  _326
REMARK  132  A    between atoms: _329  and  _331
REMARK  133  A    between atoms: _331  and  _332
REMARK  134  A    between atoms: _331  and  _334
REMARK  135  A    between atoms: _334  and  _335
REMARK  136  A    between atoms: _338  and  _340
REMARK  137  A    between atoms: _340  and  _341
REMARK  138  A    between atoms: _340  and  _343
REMARK  139  A    between atoms: _343  and  _344
REMARK  140  A    between atoms: _347  and  _349
REMARK  141  A    between atoms: _349  and  _350
REMARK  142  A    between atoms: _349  and  _352
REMARK  143  A    between atoms: _352  and  _353
REMARK  144  A    between atoms: _356  and  _358
REMARK  145  A    between atoms: _358  and  _359
REMARK  146  A    between atoms: _358  and  _361
REMARK  147  A    between atoms: _361  and  _362
REMARK  148  A    between atoms: _365  and  _367
REMARK  149  A    between atoms: _367  and  _368
REMARK  150  A    between atoms: _370  and  _372
REMARK  151  A    between atoms: _372  and  _373
REMARK  152  A    between atoms: _376  and  _378
REMARK  153  A    between atoms: _378  and  _379
REMARK  154  A    between atoms: _378  and  _381
REMARK  155  A    between atoms: _381  and  _382
REMARK  156  A    between atoms: _385  and  _387
REMARK  157  A    between atoms: _387  and  _388
REMARK  158  A    between atoms: _387  and  _390
REMARK  159  A    between atoms: _390  and  _391
REMARK  160  A    between atoms: _394  and  _396
REMARK  161  A    between atoms: _396  and  _397
REMARK  162  A    between atoms: _396  and  _399
REMARK  163  A    between atoms: _399  and  _400
REMARK  164  A    between atoms: _403  and  _405
REMARK  165  A    between atoms: _405  and  _406
REMARK  166  A    between atoms: _405  and  _408
REMARK  167  A    between atoms: _411  and  _413
REMARK  168  A    between atoms: _413  and  _414
REMARK  169  A    between atoms: _413  and  _416
REMARK  170  A    between atoms: _416  and  _417
REMARK  171  A    between atoms: _417  and  _418
REMARK  172  A    between atoms: _418  and  _419
REMARK  173  A    between atoms: _419  and  _420
REMARK  174  A    between atoms: _424  and  _426
REMARK  175  A    between atoms: _426  and  _427
REMARK  176  A    between atoms: _426  and  _429
REMARK  177  A    between atoms: _429  and  _430
REMARK  178  A    between atoms: _430  and  _431
REMARK  179  A    between atoms: _433  and  _435
REMARK  180  A    between atoms: _435  and  _436
REMARK  181  A    between atoms: _435  and  _438
REMARK  182  A    between atoms: _438  and  _439
REMARK  183  A    between atoms: _442  and  _444
REMARK  184  A    between atoms: _444  and  _445
REMARK  185  A    between atoms: _447  and  _449
REMARK  186  A    between atoms: _449  and  _450
REMARK  187  A    between atoms: _452  and  _454
REMARK  188  A    between atoms: _454  and  _455
REMARK  189  A    between atoms: _454  and  _457
REMARK  190  A    between atoms: _457  and  _458
REMARK  191  A    between atoms: _461  and  _463
REMARK  192  A    between atoms: _463  and  _464
REMARK  193  A    between atoms: _466  and  _468
REMARK  194  A    between atoms: _468  and  _469
REMARK  195  A    between atoms: _471  and  _473
REMARK  196  A    between atoms: _473  and  _474
REMARK  197  A    between atoms: _473  and  _476
REMARK  198  A    between atoms: _476  and  _477
REMARK  199  A    between atoms: _480  and  _482
REMARK  200  A    between atoms: _482  and  _483
REMARK  201  A    between atoms: _482  and  _485
REMARK  202  A    between atoms: _488  and  _490
REMARK  203  A    between atoms: _490  and  _491
REMARK  204  A    between atoms: _490  and  _493
REMARK  205  A    between atoms: _493  and  _494
REMARK  206  A    between atoms: _498  and  _499
REMARK  207  A    between atoms: _504  and  _506
REMARK  208  A    between atoms: _506  and  _507
REMARK  209  A    between atoms: _506  and  _509
REMARK  210  A    between atoms: _509  and  _510
REMARK  211  A    between atoms: _514  and  _515
REMARK  212  A    between atoms: _520  and  _522
REMARK  213  A    between atoms: _522  and  _523
REMARK  214  A    between atoms: _522  and  _525
REMARK  215  A    between atoms: _525  and  _526
REMARK  216  A    between atoms: _532  and  _534
REMARK  217  A    between atoms: _534  and  _535
REMARK  218  A    between atoms: _534  and  _537
REMARK  219  A    between atoms: _537  and  _538
REMARK  220  A    between atoms: _543  and  _545
REMARK  221  A    between atoms: _545  and  _546
REMARK  222  A    between atoms: _545  and  _548
REMARK  223  A    between atoms: _551  and  _553
REMARK  224  A    between atoms: _553  and  _554
REMARK  225  A    between atoms: _553  and  _556
REMARK  226  A    between atoms: _556  and  _557
REMARK  227  A    between atoms: _560  and  _562
REMARK  228  A    between atoms: _562  and  _563
REMARK  229  A    between atoms: _565  and  _567
REMARK  230  A    between atoms: _567  and  _568
REMARK  231  A    between atoms: _567  and  _570
REMARK  232  A    between atoms: _570  and  _571
REMARK  233  A    between atoms: _571  and  _572
REMARK  234  A    between atoms: _572  and  _573
REMARK  235  A    between atoms: _582  and  _584
REMARK  236  A    between atoms: _584  and  _585
REMARK  237  A    between atoms: _584  and  _587
REMARK  238  A    between atoms: _587  and  _588
REMARK                            x       y       z     vdW  Elec       q    Type
REMARK                         _______ _______ _______ _____ _____    ______ ____
ROOT
ATOM      1  O   HOH     1       4.238  18.946  22.795  0.00  0.00    +0.000 OA
ENDROOT
TORSDOF 0
REMARK  Name = ../refined-set-2016/1msn/1msn_pocket.pdb
REMARK  238 active torsions:
REMARK  status: ('A' for Active; 'I' for Inactive)
REMARK    1  A    between atoms: _1  and  _3
REMARK    2  A    between atoms: _3  and  _4
REMARK    3  A    between atoms: _3  and  _6
REMARK    4  A    between atoms: _6  and  _7
REMARK    5  A    between atoms: _7  and  _8
REMARK    6  A    between atoms: _8  and  _9
REMARK    7  A    between atoms: _18  and  _20
REMARK    8  A    between atoms: _20  and  _21
REMARK    9  A    between atoms: _20  and  _23
REMARK   10  A    between atoms: _23  and  _24
REMARK   11  A    between atoms: _27  and  _29
REMARK   12  A    between atoms: _29  and  _30
REMARK   13  A    between atoms: _29  and  _32
REMARK   14  A    between atoms: _32  and  _33
REMARK   15  A    between atoms: _36  and  _38
REMARK   16  A    between atoms: _38  and  _39
REMARK   17  A    between atoms: _38  and  _41
REMARK   18  A    between atoms: _41  and  _42
REMARK   19  A    between atoms: _45  and  _47
REMARK   20  A    between atoms: _47  and  _48
REMARK   21  A    between atoms: _47  and  _50
REMARK   22  A    between atoms: _50  and  _51
REMARK   23  A    between atoms: _54  and  _56
REMARK   24  A    between atoms: _56  and  _57
REMARK   25  A    between atoms: _59  and  _61
REMARK   26  A    between atoms: _61  and  _62
REMARK   27  A    between atoms: _65  and  _67
REMARK   28  A    between atoms: _67  and  _68
REMARK   29  A    between atoms: _67  and  _70
REMARK   30  A    between atoms: _70  and  _71
REMARK   31  A    between atoms: _74  and  _76
REMARK   32  A    between atoms: _76  and  _77
REMARK   33  A    between atoms: _76  and  _79
REMARK   34  A    between atoms: _79  and  _80
REMARK   35  A    between atoms: _83  and  _85
REMARK   36  A    between atoms: _85  and  _86
REMARK   37  A    between atoms: _85  and  _88
REMARK   38  A    between atoms: _88  and  _89
REMARK   39  A    between atoms: _92  and  _94
REMARK   40  A    between atoms: _94  and  _95
REMARK   41  A    between atoms: _94  and  _97
REMARK   42  A    between atoms: _100  and  _102
REMARK   43  A    between atoms: _102  and  _103
REMARK   44  A    between atoms: _102  and  _105
REMARK   45  A    between atoms: _105  and  _106
REMARK   46  A    between atoms: _109  and  _111
REMARK   47  A    between atoms: _111  and  _112
REMARK   48  A    between atoms: _111  and  _114
REMARK   49  A    between atoms: _114  and  _115
REMARK   50  A    between atoms: _115  and  _116
REMARK   51  A    between atoms: _116  and  _117
REMARK   52  A    between atoms: _117  and  _118
REMARK   53  A    between atoms: _122  and  _124
REMARK   54  A    between atoms: _124  and  _125
REMARK   55  A    between atoms: _124  and  _127
REMARK   56  A    between atoms: _127  and  _128
REMARK   57  A    between atoms: _128  and  _129
REMARK   58  A    between atoms: _131  and  _133
REMARK   59  A    between atoms: _133  and  _134
REMARK   60  A    between atoms: _133  and  _136
REMARK   61  A    between atoms: _136  and  _137
REMARK   62  A    between atoms: _140  and  _142
REMARK   63  A    between atoms: _142  and  _143
REMARK   64  A    between atoms: _145  and  _147
REMARK   65  A    between atoms: _147  and  _148
REMARK   66  A    between atoms: _150  and  _152
REMARK   67  A    between atoms: _152  and  _153
REMARK   68  A    between atoms: _152  and  _155
REMARK   69  A    between atoms: _155  and  _156
REMARK   70  A    between atoms: _159  and  _161
REMARK   71  A    between atoms: _161  and  _162
REMARK   72  A    between atoms: _164  and  _166
REMARK   73  A    between atoms: _166  and  _167
REMARK   74  A    between atoms: _169  and  _171
REMARK   75  A    between atoms: _171  and  _172
REMARK   76  A    between atoms: _171  and  _174
REMARK   77  A    between atoms: _174  and  _175
REMARK   78  A    between atoms: _181  and  _183
REMARK   79  A    between atoms: _183  and  _184
REMARK   80  A    between atoms: _183  and  _186
REMARK   81  A    between atoms: _186  and  _187
REMARK   82  A    between atoms: _190  and  _192
REMARK   83  A    between atoms: _192  and  _193
REMARK   84  A    between atoms: _192  and  _195
REMARK   85  A    between atoms: _198  and  _200
REMARK   86  A    between atoms: _200  and  _201
REMARK   87  A    between atoms: _200  and  _203
REMARK   88  A    between atoms: _203  and  _204
REMARK   89  A    between atoms: _208  and  _209
REMARK   90  A    between atoms: _214  and  _216
REMARK   91  A    between atoms: _216  and  _217
REMARK   92  A    between atoms: _216  and  _219
REMARK   93  A    between atoms: _219  and  _220
REMARK   94  A    between atoms: _224  and  _225
REMARK   95  A    between atoms: _230  and  _232
REMARK   96  A    between atoms: _232  and  _233
REMARK   97  A    between atoms: _232  and  _235
REMARK   98  A    between atoms: _235  and  _236
REMARK   99  A    between atoms: _242  and  _244
REMARK  100  A    between atoms: _244  and  _245
REMARK  101  A    between atoms: _244  and  _247
REMARK  102  A    between atoms: _247  and  _248
REMARK  103  A    between atoms: _253  and  _255
REMARK  104  A    between atoms: _255  and  _256
REMARK  105  A    between atoms: _255  and  _258
REMARK  106  A    between atoms: _261  and  _263
REMARK  107  A    between atoms: _263  and  _264
REMARK  108  A    between atoms: _263  and  _266
REMARK  109  A    between atoms: _266  and  _267
REMARK  110  A    between atoms: _270  and  _272
REMARK  111  A    between atoms: _272  and  _273
REMARK  112  A    between atoms: _275  and  _277
REMARK  113  A    between atoms: _277  and  _278
REMARK  114  A    between atoms: _277  and  _280
REMARK  115  A    between atoms: _280  and  _281
REMARK  116  A    between atoms: _281  and  _282
REMARK  117  A    between atoms: _282  and  _283
REMARK  118  A    between atoms: _292  and  _294
REMARK  119  A    between atoms: _294  and  _295
REMARK  120  A    between atoms: _294  and  _297
REMARK  121  A    between atoms: _297  and  _298
REMARK  122  A    between atoms: _303  and  _305
REMARK  123  A    between atoms: _305  and  _306
REMARK  124  A    between atoms: _305  and  _308
REMARK  125  A    between atoms: _308  and  _309
REMARK  126  A    between atoms: _309  and  _310
REMARK  127  A    between atoms: _310  and  _311
REMARK  128  A    between atoms: _320  and  _322
REMARK  129  A    between atoms: _322  and  _323
REMARK  130  A    between atoms: _322  and  _325
REMARK  131  A    between atoms: _325  and  _326
REMARK  132  A    between atoms: _329  and  _331
REMARK  133  A    between atoms: _331  and  _332
REMARK  134  A    between atoms: _331  and  _334
REMARK  135  A    between atoms: _334  and  _335
REMARK  136  A    between atoms: _338  and  _340
REMARK  137  A    between atoms: _340  and  _341
REMARK  138  A    between atoms: _340  and  _343
REMARK  139  A    between atoms: _343  and  _344
REMARK  140  A    between atoms: _347  and  _349
REMARK  141  A    between atoms: _349  and  _350
REMARK  142  A    between atoms: _349  and  _352
REMARK  143  A    between atoms: _352  and  _353
REMARK  144  A    between atoms: _356  and  _358
REMARK  145  A    between atoms: _358  and  _359
REMARK  146  A    between atoms: _358  and  _361
REMARK  147  A    between atoms: _361  and  _362
REMARK  148  A    between atoms: _365  and  _367
REMARK  149  A    between atoms: _367  and  _368
REMARK  150  A    between atoms: _370  and  _372
REMARK  151  A    between atoms: _372  and  _373
REMARK  152  A    between atoms: _376  and  _378
REMARK  153  A    between atoms: _378  and  _379
REMARK  154  A    between atoms: _378  and  _381
REMARK  155  A    between atoms: _381  and  _382
REMARK  156  A    between atoms: _385  and  _387
REMARK  157  A    between atoms: _387  and  _388
REMARK  158  A    between atoms: _387  and  _390
REMARK  159  A    between atoms: _390  and  _391
REMARK  160  A    between atoms: _394  and  _396
REMARK  161  A    between atoms: _396  and  _397
REMARK  162  A    between atoms: _396  and  _399
REMARK  163  A    between atoms: _399  and  _400
REMARK  164  A    between atoms: _403  and  _405
REMARK  165  A    between atoms: _405  and  _406
REMARK  166  A    between atoms: _405  and  _408
REMARK  167  A    between atoms: _411  and  _413
REMARK  168  A    between atoms: _413  and  _414
REMARK  169  A    between atoms: _413  and  _416
REMARK  170  A    between atoms: _416  and  _417
REMARK  171  A    between atoms: _417  and  _418
REMARK  172  A    between atoms: _418  and  _419
REMARK  173  A    between atoms: _419  and  _420
REMARK  174  A    between atoms: _424  and  _426
REMARK  175  A    between atoms: _426  and  _427
REMARK  176  A    between atoms: _426  and  _429
REMARK  177  A    between atoms: _429  and  _430
REMARK  178  A    between atoms: _430  and  _431
REMARK  179  A    between atoms: _433  and  _435
REMARK  180  A    between atoms: _435  and  _436
REMARK  181  A    between atoms: _435  and  _438
REMARK  182  A    between atoms: _438  and  _439
REMARK  183  A    between atoms: _442  and  _444
REMARK  184  A    between atoms: _444  and  _445
REMARK  185  A    between atoms: _447  and  _449
REMARK  186  A    between atoms: _449  and  _450
REMARK  187  A    between atoms: _452  and  _454
REMARK  188  A    between atoms: _454  and  _455
REMARK  189  A    between atoms: _454  and  _457
REMARK  190  A    between atoms: _457  and  _458
REMARK  191  A    between atoms: _461  and  _463
REMARK  192  A    between atoms: _463  and  _464
REMARK  193  A    between atoms: _466  and  _468
REMARK  194  A    between atoms: _468  and  _469
REMARK  195  A    between atoms: _471  and  _473
REMARK  196  A    between atoms: _473  and  _474
REMARK  197  A    between atoms: _473  and  _476
REMARK  198  A    between atoms: _476  and  _477
REMARK  199  A    between atoms: _480  and  _482
REMARK  200  A    between atoms: _482  and  _483
REMARK  201  A    between atoms: _482  and  _485
REMARK  202  A    between atoms: _488  and  _490
REMARK  203  A    between atoms: _490  and  _491
REMARK  204  A    between atoms: _490  and  _493
REMARK  205  A    between atoms: _493  and  _494
REMARK  206  A    between atoms: _498  and  _499
REMARK  207  A    between atoms: _504  and  _506
REMARK  208  A    between atoms: _506  and  _507
REMARK  209  A    between atoms: _506  and  _509
REMARK  210  A    between atoms: _509  and  _510
REMARK  211  A    between atoms: _514  and  _515
REMARK  212  A    between atoms: _520  and  _522
REMARK  213  A    between atoms: _522  and  _523
REMARK  214  A    between atoms: _522  and  _525
REMARK  215  A    between atoms: _525  and  _526
REMARK  216  A    between atoms: _532  and  _534
REMARK  217  A    between atoms: _534  and  _535
REMARK  218  A    between atoms: _534  and  _537
REMARK  219  A    between atoms: _537  and  _538
REMARK  220  A    between atoms: _543  and  _545
REMARK  221  A    between atoms: _545  and  _546
REMARK  222  A    between atoms: _545  and  _548
REMARK  223  A    between atoms: _551  and  _553
REMARK  224  A    between atoms: _553  and  _554
REMARK  225  A    between atoms: _553  and  _556
REMARK  226  A    between atoms: _556  and  _557
REMARK  227  A    between atoms: _560  and  _562
REMARK  228  A    between atoms: _562  and  _563
REMARK  229  A    between atoms: _565  and  _567
REMARK  230  A    between atoms: _567  and  _568
REMARK  231  A    between atoms: _567  and  _570
REMARK  232  A    between atoms: _570  and  _571
REMARK  233  A    between atoms: _571  and  _572
REMARK  234  A    between atoms: _572  and  _573
REMARK  235  A    between atoms: _582  and  _584
REMARK  236  A    between atoms: _584  and  _585
REMARK  237  A    between atoms: _584  and  _587
REMARK  238  A    between atoms: _587  and  _588
REMARK                            x       y       z     vdW  Elec       q    Type
REMARK                         _______ _______ _______ _____ _____    ______ ____
ROOT
ATOM      1  O   HOH     1       5.886  12.546  23.989  0.00  0.00    +0.000 OA
ENDROOT
TORSDOF 0
REMARK  Name = ../refined-set-2016/1msn/1msn_pocket.pdb
REMARK  238 active torsions:
REMARK  status: ('A' for Active; 'I' for Inactive)
REMARK    1  A    between atoms: _1  and  _3
REMARK    2  A    between atoms: _3  and  _4
REMARK    3  A    between atoms: _3  and  _6
REMARK    4  A    between atoms: _6  and  _7
REMARK    5  A    between atoms: _7  and  _8
REMARK    6  A    between atoms: _8  and  _9
REMARK    7  A    between atoms: _18  and  _20
REMARK    8  A    between atoms: _20  and  _21
REMARK    9  A    between atoms: _20  and  _23
REMARK   10  A    between atoms: _23  and  _24
REMARK   11  A    between atoms: _27  and  _29
REMARK   12  A    between atoms: _29  and  _30
REMARK   13  A    between atoms: _29  and  _32
REMARK   14  A    between atoms: _32  and  _33
REMARK   15  A    between atoms: _36  and  _38
REMARK   16  A    between atoms: _38  and  _39
REMARK   17  A    between atoms: _38  and  _41
REMARK   18  A    between atoms: _41  and  _42
REMARK   19  A    between atoms: _45  and  _47
REMARK   20  A    between atoms: _47  and  _48
REMARK   21  A    between atoms: _47  and  _50
REMARK   22  A    between atoms: _50  and  _51
REMARK   23  A    between atoms: _54  and  _56
REMARK   24  A    between atoms: _56  and  _57
REMARK   25  A    between atoms: _59  and  _61
REMARK   26  A    between atoms: _61  and  _62
REMARK   27  A    between atoms: _65  and  _67
REMARK   28  A    between atoms: _67  and  _68
REMARK   29  A    between atoms: _67  and  _70
REMARK   30  A    between atoms: _70  and  _71
REMARK   31  A    between atoms: _74  and  _76
REMARK   32  A    between atoms: _76  and  _77
REMARK   33  A    between atoms: _76  and  _79
REMARK   34  A    between atoms: _79  and  _80
REMARK   35  A    between atoms: _83  and  _85
REMARK   36  A    between atoms: _85  and  _86
REMARK   37  A    between atoms: _85  and  _88
REMARK   38  A    between atoms: _88  and  _89
REMARK   39  A    between atoms: _92  and  _94
REMARK   40  A    between atoms: _94  and  _95
REMARK   41  A    between atoms: _94  and  _97
REMARK   42  A    between atoms: _100  and  _102
REMARK   43  A    between atoms: _102  and  _103
REMARK   44  A    between atoms: _102  and  _105
REMARK   45  A    between atoms: _105  and  _106
REMARK   46  A    between atoms: _109  and  _111
REMARK   47  A    between atoms: _111  and  _112
REMARK   48  A    between atoms: _111  and  _114
REMARK   49  A    between atoms: _114  and  _115
REMARK   50  A    between atoms: _115  and  _116
REMARK   51  A    between atoms: _116  and  _117
REMARK   52  A    between atoms: _117  and  _118
REMARK   53  A    between atoms: _122  and  _124
REMARK   54  A    between atoms: _124  and  _125
REMARK   55  A    between atoms: _124  and  _127
REMARK   56  A    between atoms: _127  and  _128
REMARK   57  A    between atoms: _128  and  _129
REMARK   58  A    between atoms: _131  and  _133
REMARK   59  A    between atoms: _133  and  _134
REMARK   60  A    between atoms: _133  and  _136
REMARK   61  A    between atoms: _136  and  _137
REMARK   62  A    between atoms: _140  and  _142
REMARK   63  A    between atoms: _142  and  _143
REMARK   64  A    between atoms: _145  and  _147
REMARK   65  A    between atoms: _147  and  _148
REMARK   66  A    between atoms: _150  and  _152
REMARK   67  A    between atoms: _152  and  _153
REMARK   68  A    between atoms: _152  and  _155
REMARK   69  A    between atoms: _155  and  _156
REMARK   70  A    between atoms: _159  and  _161
REMARK   71  A    between atoms: _161  and  _162
REMARK   72  A    between atoms: _164  and  _166
REMARK   73  A    between atoms: _166  and  _167
REMARK   74  A    between atoms: _169  and  _171
REMARK   75  A    between atoms: _171  and  _172
REMARK   76  A    between atoms: _171  and  _174
REMARK   77  A    between atoms: _174  and  _175
REMARK   78  A    between atoms: _181  and  _183
REMARK   79  A    between atoms: _183  and  _184
REMARK   80  A    between atoms: _183  and  _186
REMARK   81  A    between atoms: _186  and  _187
REMARK   82  A    between atoms: _190  and  _192
REMARK   83  A    between atoms: _192  and  _193
REMARK   84  A    between atoms: _192  and  _195
REMARK   85  A    between atoms: _198  and  _200
REMARK   86  A    between atoms: _200  and  _201
REMARK   87  A    between atoms: _200  and  _203
REMARK   88  A    between atoms: _203  and  _204
REMARK   89  A    between atoms: _208  and  _209
REMARK   90  A    between atoms: _214  and  _216
REMARK   91  A    between atoms: _216  and  _217
REMARK   92  A    between atoms: _216  and  _219
REMARK   93  A    between atoms: _219  and  _220
REMARK   94  A    between atoms: _224  and  _225
REMARK   95  A    between atoms: _230  and  _232
REMARK   96  A    between atoms: _232  and  _233
REMARK   97  A    between atoms: _232  and  _235
REMARK   98  A    between atoms: _235  and  _236
REMARK   99  A    between atoms: _242  and  _244
REMARK  100  A    between atoms: _244  and  _245
REMARK  101  A    between atoms: _244  and  _247
REMARK  102  A    between atoms: _247  and  _248
REMARK  103  A    between atoms: _253  and  _255
REMARK  104  A    between atoms: _255  and  _256
REMARK  105  A    between atoms: _255  and  _258
REMARK  106  A    between atoms: _261  and  _263
REMARK  107  A    between atoms: _263  and  _264
REMARK  108  A    between atoms: _263  and  _266
REMARK  109  A    between atoms: _266  and  _267
REMARK  110  A    between atoms: _270  and  _272
REMARK  111  A    between atoms: _272  and  _273
REMARK  112  A    between atoms: _275  and  _277
REMARK  113  A    between atoms: _277  and  _278
REMARK  114  A    between atoms: _277  and  _280
REMARK  115  A    between atoms: _280  and  _281
REMARK  116  A    between atoms: _281  and  _282
REMARK  117  A    between atoms: _282  and  _283
REMARK  118  A    between atoms: _292  and  _294
REMARK  119  A    between atoms: _294  and  _295
REMARK  120  A    between atoms: _294  and  _297
REMARK  121  A    between atoms: _297  and  _298
REMARK  122  A    between atoms: _303  and  _305
REMARK  123  A    between atoms: _305  and  _306
REMARK  124  A    between atoms: _305  and  _308
REMARK  125  A    between atoms: _308  and  _309
REMARK  126  A    between atoms: _309  and  _310
REMARK  127  A    between atoms: _310  and  _311
REMARK  128  A    between atoms: _320  and  _322
REMARK  129  A    between atoms: _322  and  _323
REMARK  130  A    between atoms: _322  and  _325
REMARK  131  A    between atoms: _325  and  _326
REMARK  132  A    between atoms: _329  and  _331
REMARK  133  A    between atoms: _331  and  _332
REMARK  134  A    between atoms: _331  and  _334
REMARK  135  A    between atoms: _334  and  _335
REMARK  136  A    between atoms: _338  and  _340
REMARK  137  A    between atoms: _340  and  _341
REMARK  138  A    between atoms: _340  and  _343
REMARK  139  A    between atoms: _343  and  _344
REMARK  140  A    between atoms: _347  and  _349
REMARK  141  A    between atoms: _349  and  _350
REMARK  142  A    between atoms: _349  and  _352
REMARK  143  A    between atoms: _352  and  _353
REMARK  144  A    between atoms: _356  and  _358
REMARK  145  A    between atoms: _358  and  _359
REMARK  146  A    between atoms: _358  and  _361
REMARK  147  A    between atoms: _361  and  _362
REMARK  148  A    between atoms: _365  and  _367
REMARK  149  A    between atoms: _367  and  _368
REMARK  150  A    between atoms: _370  and  _372
REMARK  151  A    between atoms: _372  and  _373
REMARK  152  A    between atoms: _376  and  _378
REMARK  153  A    between atoms: _378  and  _379
REMARK  154  A    between atoms: _378  and  _381
REMARK  155  A    between atoms: _381  and  _382
REMARK  156  A    between atoms: _385  and  _387
REMARK  157  A    between atoms: _387  and  _388
REMARK  158  A    between atoms: _387  and  _390
REMARK  159  A    between atoms: _390  and  _391
REMARK  160  A    between atoms: _394  and  _396
REMARK  161  A    between atoms: _396  and  _397
REMARK  162  A    between atoms: _396  and  _399
REMARK  163  A    between atoms: _399  and  _400
REMARK  164  A    between atoms: _403  and  _405
REMARK  165  A    between atoms: _405  and  _406
REMARK  166  A    between atoms: _405  and  _408
REMARK  167  A    between atoms: _411  and  _413
REMARK  168  A    between atoms: _413  and  _414
REMARK  169  A    between atoms: _413  and  _416
REMARK  170  A    between atoms: _416  and  _417
REMARK  171  A    between atoms: _417  and  _418
REMARK  172  A    between atoms: _418  and  _419
REMARK  173  A    between atoms: _419  and  _420
REMARK  174  A    between atoms: _424  and  _426
REMARK  175  A    between atoms: _426  and  _427
REMARK  176  A    between atoms: _426  and  _429
REMARK  177  A    between atoms: _429  and  _430
REMARK  178  A    between atoms: _430  and  _431
REMARK  179  A    between atoms: _433  and  _435
REMARK  180  A    between atoms: _435  and  _436
REMARK  181  A    between atoms: _435  and  _438
REMARK  182  A    between atoms: _438  and  _439
REMARK  183  A    between atoms: _442  and  _444
REMARK  184  A    between atoms: _444  and  _445
REMARK  185  A    between atoms: _447  and  _449
REMARK  186  A    between atoms: _449  and  _450
REMARK  187  A    between atoms: _452  and  _454
REMARK  188  A    between atoms: _454  and  _455
REMARK  189  A    between atoms: _454  and  _457
REMARK  190  A    between atoms: _457  and  _458
REMARK  191  A    between atoms: _461  and  _463
REMARK  192  A    between atoms: _463  and  _464
REMARK  193  A    between atoms: _466  and  _468
REMARK  194  A    between atoms: _468  and  _469
REMARK  195  A    between atoms: _471  and  _473
REMARK  196  A    between atoms: _473  and  _474
REMARK  197  A    between atoms: _473  and  _476
REMARK  198  A    between atoms: _476  and  _477
REMARK  199  A    between atoms: _480  and  _482
REMARK  200  A    between atoms: _482  and  _483
REMARK  201  A    between atoms: _482  and  _485
REMARK  202  A    between atoms: _488  and  _490
REMARK  203  A    between atoms: _490  and  _491
REMARK  204  A    between atoms: _490  and  _493
REMARK  205  A    between atoms: _493  and  _494
REMARK  206  A    between atoms: _498  and  _499
REMARK  207  A    between atoms: _504  and  _506
REMARK  208  A    between atoms: _506  and  _507
REMARK  209  A    between atoms: _506  and  _509
REMARK  210  A    between atoms: _509  and  _510
REMARK  211  A    between atoms: _514  and  _515
REMARK  212  A    between atoms: _520  and  _522
REMARK  213  A    between atoms: _522  and  _523
REMARK  214  A    between atoms: _522  and  _525
REMARK  215  A    between atoms: _525  and  _526
REMARK  216  A    between atoms: _532  and  _534
REMARK  217  A    between atoms: _534  and  _535
REMARK  218  A    between atoms: _534  and  _537
REMARK  219  A    between atoms: _537  and  _538
REMARK  220  A    between atoms: _543  and  _545
REMARK  221  A    between atoms: _545  and  _546
REMARK  222  A    between atoms: _545  and  _548
REMARK  223  A    between atoms: _551  and  _553
REMARK  224  A    between atoms: _553  and  _554
REMARK  225  A    between atoms: _553  and  _556
REMARK  226  A    between atoms: _556  and  _557
REMARK  227  A    between atoms: _560  and  _562
REMARK  228  A    between atoms: _562  and  _563
REMARK  229  A    between atoms: _565  and  _567
REMARK  230  A    between atoms: _567  and  _568
REMARK  231  A    between atoms: _567  and  _570
REMARK  232  A    between atoms: _570  and  _571
REMARK  233  A    between atoms: _571  and  _572
REMARK  234  A    between atoms: _572  and  _573
REMARK  235  A    between atoms: _582  and  _584
REMARK  236  A    between atoms: _584  and  _585
REMARK  237  A    between atoms: _584  and  _587
REMARK  238  A    between atoms: _587  and  _588
REMARK                            x       y       z     vdW  Elec       q    Type
REMARK                         _______ _______ _______ _____ _____    ______ ____
ROOT
ATOM      1  O   HOH     1       7.873  14.837  19.299  0.00  0.00    +0.000 OA
ENDROOT
TORSDOF 0
REMARK  Name = ../refined-set-2016/1msn/1msn_pocket.pdb
REMARK  238 active torsions:
REMARK  status: ('A' for Active; 'I' for Inactive)
REMARK    1  A    between atoms: _1  and  _3
REMARK    2  A    between atoms: _3  and  _4
REMARK    3  A    between atoms: _3  and  _6
REMARK    4  A    between atoms: _6  and  _7
REMARK    5  A    between atoms: _7  and  _8
REMARK    6  A    between atoms: _8  and  _9
REMARK    7  A    between atoms: _18  and  _20
REMARK    8  A    between atoms: _20  and  _21
REMARK    9  A    between atoms: _20  and  _23
REMARK   10  A    between atoms: _23  and  _24
REMARK   11  A    between atoms: _27  and  _29
REMARK   12  A    between atoms: _29  and  _30
REMARK   13  A    between atoms: _29  and  _32
REMARK   14  A    between atoms: _32  and  _33
REMARK   15  A    between atoms: _36  and  _38
REMARK   16  A    between atoms: _38  and  _39
REMARK   17  A    between atoms: _38  and  _41
REMARK   18  A    between atoms: _41  and  _42
REMARK   19  A    between atoms: _45  and  _47
REMARK   20  A    between atoms: _47  and  _48
REMARK   21  A    between atoms: _47  and  _50
REMARK   22  A    between atoms: _50  and  _51
REMARK   23  A    between atoms: _54  and  _56
REMARK   24  A    between atoms: _56  and  _57
REMARK   25  A    between atoms: _59  and  _61
REMARK   26  A    between atoms: _61  and  _62
REMARK   27  A    between atoms: _65  and  _67
REMARK   28  A    between atoms: _67  and  _68
REMARK   29  A    between atoms: _67  and  _70
REMARK   30  A    between atoms: _70  and  _71
REMARK   31  A    between atoms: _74  and  _76
REMARK   32  A    between atoms: _76  and  _77
REMARK   33  A    between atoms: _76  and  _79
REMARK   34  A    between atoms: _79  and  _80
REMARK   35  A    between atoms: _83  and  _85
REMARK   36  A    between atoms: _85  and  _86
REMARK   37  A    between atoms: _85  and  _88
REMARK   38  A    between atoms: _88  and  _89
REMARK   39  A    between atoms: _92  and  _94
REMARK   40  A    between atoms: _94  and  _95
REMARK   41  A    between atoms: _94  and  _97
REMARK   42  A    between atoms: _100  and  _102
REMARK   43  A    between atoms: _102  and  _103
REMARK   44  A    between atoms: _102  and  _105
REMARK   45  A    between atoms: _105  and  _106
REMARK   46  A    between atoms: _109  and  _111
REMARK   47  A    between atoms: _111  and  _112
REMARK   48  A    between atoms: _111  and  _114
REMARK   49  A    between atoms: _114  and  _115
REMARK   50  A    between atoms: _115  and  _116
REMARK   51  A    between atoms: _116  and  _117
REMARK   52  A    between atoms: _117  and  _118
REMARK   53  A    between atoms: _122  and  _124
REMARK   54  A    between atoms: _124  and  _125
REMARK   55  A    between atoms: _124  and  _127
REMARK   56  A    between atoms: _127  and  _128
REMARK   57  A    between atoms: _128  and  _129
REMARK   58  A    between atoms: _131  and  _133
REMARK   59  A    between atoms: _133  and  _134
REMARK   60  A    between atoms: _133  and  _136
REMARK   61  A    between atoms: _136  and  _137
REMARK   62  A    between atoms: _140  and  _142
REMARK   63  A    between atoms: _142  and  _143
REMARK   64  A    between atoms: _145  and  _147
REMARK   65  A    between atoms: _147  and  _148
REMARK   66  A    between atoms: _150  and  _152
REMARK   67  A    between atoms: _152  and  _153
REMARK   68  A    between atoms: _152  and  _155
REMARK   69  A    between atoms: _155  and  _156
REMARK   70  A    between atoms: _159  and  _161
REMARK   71  A    between atoms: _161  and  _162
REMARK   72  A    between atoms: _164  and  _166
REMARK   73  A    between atoms: _166  and  _167
REMARK   74  A    between atoms: _169  and  _171
REMARK   75  A    between atoms: _171  and  _172
REMARK   76  A    between atoms: _171  and  _174
REMARK   77  A    between atoms: _174  and  _175
REMARK   78  A    between atoms: _181  and  _183
REMARK   79  A    between atoms: _183  and  _184
REMARK   80  A    between atoms: _183  and  _186
REMARK   81  A    between atoms: _186  and  _187
REMARK   82  A    between atoms: _190  and  _192
REMARK   83  A    between atoms: _192  and  _193
REMARK   84  A    between atoms: _192  and  _195
REMARK   85  A    between atoms: _198  and  _200
REMARK   86  A    between atoms: _200  and  _201
REMARK   87  A    between atoms: _200  and  _203
REMARK   88  A    between atoms: _203  and  _204
REMARK   89  A    between atoms: _208  and  _209
REMARK   90  A    between atoms: _214  and  _216
REMARK   91  A    between atoms: _216  and  _217
REMARK   92  A    between atoms: _216  and  _219
REMARK   93  A    between atoms: _219  and  _220
REMARK   94  A    between atoms: _224  and  _225
REMARK   95  A    between atoms: _230  and  _232
REMARK   96  A    between atoms: _232  and  _233
REMARK   97  A    between atoms: _232  and  _235
REMARK   98  A    between atoms: _235  and  _236
REMARK   99  A    between atoms: _242  and  _244
REMARK  100  A    between atoms: _244  and  _245
REMARK  101  A    between atoms: _244  and  _247
REMARK  102  A    between atoms: _247  and  _248
REMARK  103  A    between atoms: _253  and  _255
REMARK  104  A    between atoms: _255  and  _256
REMARK  105  A    between atoms: _255  and  _258
REMARK  106  A    between atoms: _261  and  _263
REMARK  107  A    between atoms: _263  and  _264
REMARK  108  A    between atoms: _263  and  _266
REMARK  109  A    between atoms: _266  and  _267
REMARK  110  A    between atoms: _270  and  _272
REMARK  111  A    between atoms: _272  and  _273
REMARK  112  A    between atoms: _275  and  _277
REMARK  113  A    between atoms: _277  and  _278
REMARK  114  A    between atoms: _277  and  _280
REMARK  115  A    between atoms: _280  and  _281
REMARK  116  A    between atoms: _281  and  _282
REMARK  117  A    between atoms: _282  and  _283
REMARK  118  A    between atoms: _292  and  _294
REMARK  119  A    between atoms: _294  and  _295
REMARK  120  A    between atoms: _294  and  _297
REMARK  121  A    between atoms: _297  and  _298
REMARK  122  A    between atoms: _303  and  _305
REMARK  123  A    between atoms: _305  and  _306
REMARK  124  A    between atoms: _305  and  _308
REMARK  125  A    between atoms: _308  and  _309
REMARK  126  A    between atoms: _309  and  _310
REMARK  127  A    between atoms: _310  and  _311
REMARK  128  A    between atoms: _320  and  _322
REMARK  129  A    between atoms: _322  and  _323
REMARK  130  A    between atoms: _322  and  _325
REMARK  131  A    between atoms: _325  and  _326
REMARK  132  A    between atoms: _329  and  _331
REMARK  133  A    between atoms: _331  and  _332
REMARK  134  A    between atoms: _331  and  _334
REMARK  135  A    between atoms: _334  and  _335
REMARK  136  A    between atoms: _338  and  _340
REMARK  137  A    between atoms: _340  and  _341
REMARK  138  A    between atoms: _340  and  _343
REMARK  139  A    between atoms: _343  and  _344
REMARK  140  A    between atoms: _347  and  _349
REMARK  141  A    between atoms: _349  and  _350
REMARK  142  A    between atoms: _349  and  _352
REMARK  143  A    between atoms: _352  and  _353
REMARK  144  A    between atoms: _356  and  _358
REMARK  145  A    between atoms: _358  and  _359
REMARK  146  A    between atoms: _358  and  _361
REMARK  147  A    between atoms: _361  and  _362
REMARK  148  A    between atoms: _365  and  _367
REMARK  149  A    between atoms: _367  and  _368
REMARK  150  A    between atoms: _370  and  _372
REMARK  151  A    between atoms: _372  and  _373
REMARK  152  A    between atoms: _376  and  _378
REMARK  153  A    between atoms: _378  and  _379
REMARK  154  A    between atoms: _378  and  _381
REMARK  155  A    between atoms: _381  and  _382
REMARK  156  A    between atoms: _385  and  _387
REMARK  157  A    between atoms: _387  and  _388
REMARK  158  A    between atoms: _387  and  _390
REMARK  159  A    between atoms: _390  and  _391
REMARK  160  A    between atoms: _394  and  _396
REMARK  161  A    between atoms: _396  and  _397
REMARK  162  A    between atoms: _396  and  _399
REMARK  163  A    between atoms: _399  and  _400
REMARK  164  A    between atoms: _403  and  _405
REMARK  165  A    between atoms: _405  and  _406
REMARK  166  A    between atoms: _405  and  _408
REMARK  167  A    between atoms: _411  and  _413
REMARK  168  A    between atoms: _413  and  _414
REMARK  169  A    between atoms: _413  and  _416
REMARK  170  A    between atoms: _416  and  _417
REMARK  171  A    between atoms: _417  and  _418
REMARK  172  A    between atoms: _418  and  _419
REMARK  173  A    between atoms: _419  and  _420
REMARK  174  A    between atoms: _424  and  _426
REMARK  175  A    between atoms: _426  and  _427
REMARK  176  A    between atoms: _426  and  _429
REMARK  177  A    between atoms: _429  and  _430
REMARK  178  A    between atoms: _430  and  _431
REMARK  179  A    between atoms: _433  and  _435
REMARK  180  A    between atoms: _435  and  _436
REMARK  181  A    between atoms: _435  and  _438
REMARK  182  A    between atoms: _438  and  _439
REMARK  183  A    between atoms: _442  and  _444
REMARK  184  A    between atoms: _444  and  _445
REMARK  185  A    between atoms: _447  and  _449
REMARK  186  A    between atoms: _449  and  _450
REMARK  187  A    between atoms: _452  and  _454
REMARK  188  A    between atoms: _454  and  _455
REMARK  189  A    between atoms: _454  and  _457
REMARK  190  A    between atoms: _457  and  _458
REMARK  191  A    between atoms: _461  and  _463
REMARK  192  A    between atoms: _463  and  _464
REMARK  193  A    between atoms: _466  and  _468
REMARK  194  A    between atoms: _468  and  _469
REMARK  195  A    between atoms: _471  and  _473
REMARK  196  A    between atoms: _473  and  _474
REMARK  197  A    between atoms: _473  and  _476
REMARK  198  A    between atoms: _476  and  _477
REMARK  199  A    between atoms: _480  and  _482
REMARK  200  A    between atoms: _482  and  _483
REMARK  201  A    between atoms: _482  and  _485
REMARK  202  A    between atoms: _488  and  _490
REMARK  203  A    between atoms: _490  and  _491
REMARK  204  A    between atoms: _490  and  _493
REMARK  205  A    between atoms: _493  and  _494
REMARK  206  A    between atoms: _498  and  _499
REMARK  207  A    between atoms: _504  and  _506
REMARK  208  A    between atoms: _506  and  _507
REMARK  209  A    between atoms: _506  and  _509
REMARK  210  A    between atoms: _509  and  _510
REMARK  211  A    between atoms: _514  and  _515
REMARK  212  A    between atoms: _520  and  _522
REMARK  213  A    between atoms: _522  and  _523
REMARK  214  A    between atoms: _522  and  _525
REMARK  215  A    between atoms: _525  and  _526
REMARK  216  A    between atoms: _532  and  _534
REMARK  217  A    between atoms: _534  and  _535
REMARK  218  A    between atoms: _534  and  _537
REMARK  219  A    between atoms: _537  and  _538
REMARK  220  A    between atoms: _543  and  _545
REMARK  221  A    between atoms: _545  and  _546
REMARK  222  A    between atoms: _545  and  _548
REMARK  223  A    between atoms: _551  and  _553
REMARK  224  A    between atoms: _553  and  _554
REMARK  225  A    between atoms: _553  and  _556
REMARK  226  A    between atoms: _556  and  _557
REMARK  227  A    between atoms: _560  and  _562
REMARK  228  A    between atoms: _562  and  _563
REMARK  229  A    between atoms: _565  and  _567
REMARK  230  A    between atoms: _567  and  _568
REMARK  231  A    between atoms: _567  and  _570
REMARK  232  A    between atoms: _570  and  _571
REMARK  233  A    between atoms: _571  and  _572
REMARK  234  A    between atoms: _572  and  _573
REMARK  235  A    between atoms: _582  and  _584
REMARK  236  A    between atoms: _584  and  _585
REMARK  237  A    between atoms: _584  and  _587
REMARK  238  A    between atoms: _587  and  _588
REMARK                            x       y       z     vdW  Elec       q    Type
REMARK                         _______ _______ _______ _____ _____    ______ ____
ROOT
ATOM      1  O   HOH     1       8.192  22.231  16.584  0.00  0.00    +0.000 OA
ENDROOT
TORSDOF 0
