REMARK  Name = ../refined-set-2016/2xbx/2xbx_pocket.pdb
REMARK  221 active torsions:
REMARK  status: ('A' for Active; 'I' for Inactive)
REMARK    1  A    between atoms: _1  and  _3
REMARK    2  A    between atoms: _3  and  _4
REMARK    3  A    between atoms: _3  and  _6
REMARK    4  A    between atoms: _9  and  _11
REMARK    5  A    between atoms: _11  and  _12
REMARK    6  A    between atoms: _11  and  _14
REMARK    7  A    between atoms: _14  and  _15
REMARK    8  A    between atoms: _20  and  _22
REMARK    9  A    between atoms: _22  and  _23
REMARK   10  A    between atoms: _22  and  _25
REMARK   11  A    between atoms: _25  and  _26
REMARK   12  A    between atoms: _26  and  _27
REMARK   13  A    between atoms: _32  and  _34
REMARK   14  A    between atoms: _34  and  _35
REMARK   15  A    between atoms: _34  and  _37
REMARK   16  A    between atoms: _37  and  _38
REMARK   17  A    between atoms: _44  and  _46
REMARK   18  A    between atoms: _46  and  _47
REMARK   19  A    between atoms: _46  and  _49
REMARK   20  A    between atoms: _49  and  _50
REMARK   21  A    between atoms: _53  and  _55
REMARK   22  A    between atoms: _55  and  _56
REMARK   23  A    between atoms: _55  and  _58
REMARK   24  A    between atoms: _58  and  _59
REMARK   25  A    between atoms: _59  and  _60
REMARK   26  A    between atoms: _60  and  _61
REMARK   27  A    between atoms: _61  and  _62
REMARK   28  A    between atoms: _66  and  _68
REMARK   29  A    between atoms: _68  and  _69
REMARK   30  A    between atoms: _68  and  _71
REMARK   31  A    between atoms: _71  and  _72
REMARK   32  A    between atoms: _72  and  _73
REMARK   33  A    between atoms: _76  and  _78
REMARK   34  A    between atoms: _78  and  _79
REMARK   35  A    between atoms: _78  and  _81
REMARK   36  A    between atoms: _81  and  _82
REMARK   37  A    between atoms: _85  and  _87
REMARK   38  A    between atoms: _87  and  _88
REMARK   39  A    between atoms: _87  and  _90
REMARK   40  A    between atoms: _90  and  _91
REMARK   41  A    between atoms: _96  and  _97
REMARK   42  A    between atoms: _99  and  _101
REMARK   43  A    between atoms: _101  and  _102
REMARK   44  A    between atoms: _101  and  _104
REMARK   45  A    between atoms: _104  and  _105
REMARK   46  A    between atoms: _108  and  _110
REMARK   47  A    between atoms: _110  and  _111
REMARK   48  A    between atoms: _110  and  _113
REMARK   49  A    between atoms: _113  and  _114
REMARK   50  A    between atoms: _117  and  _119
REMARK   51  A    between atoms: _119  and  _120
REMARK   52  A    between atoms: _119  and  _122
REMARK   53  A    between atoms: _125  and  _127
REMARK   54  A    between atoms: _127  and  _128
REMARK   55  A    between atoms: _127  and  _130
REMARK   56  A    between atoms: _130  and  _131
REMARK   57  A    between atoms: _131  and  _132
REMARK   58  A    between atoms: _132  and  _133
REMARK   59  A    between atoms: _142  and  _144
REMARK   60  A    between atoms: _144  and  _145
REMARK   61  A    between atoms: _144  and  _147
REMARK   62  A    between atoms: _147  and  _148
REMARK   63  A    between atoms: _153  and  _155
REMARK   64  A    between atoms: _155  and  _156
REMARK   65  A    between atoms: _155  and  _158
REMARK   66  A    between atoms: _158  and  _159
REMARK   67  A    between atoms: _159  and  _160
REMARK   68  A    between atoms: _163  and  _165
REMARK   69  A    between atoms: _165  and  _166
REMARK   70  A    between atoms: _165  and  _168
REMARK   71  A    between atoms: _168  and  _169
REMARK   72  A    between atoms: _169  and  _170
REMARK   73  A    between atoms: _170  and  _171
REMARK   74  A    between atoms: _171  and  _172
REMARK   75  A    between atoms: _176  and  _178
REMARK   76  A    between atoms: _178  and  _179
REMARK   77  A    between atoms: _181  and  _183
REMARK   78  A    between atoms: _183  and  _184
REMARK   79  A    between atoms: _183  and  _186
REMARK   80  A    between atoms: _189  and  _191
REMARK   81  A    between atoms: _191  and  _192
REMARK   82  A    between atoms: _191  and  _194
REMARK   83  A    between atoms: _194  and  _195
REMARK   84  A    between atoms: _197  and  _199
REMARK   85  A    between atoms: _199  and  _200
REMARK   86  A    between atoms: _199  and  _202
REMARK   87  A    between atoms: _202  and  _203
REMARK   88  A    between atoms: _205  and  _207
REMARK   89  A    between atoms: _207  and  _208
REMARK   90  A    between atoms: _207  and  _210
REMARK   91  A    between atoms: _210  and  _211
REMARK   92  A    between atoms: _217  and  _219
REMARK   93  A    between atoms: _219  and  _220
REMARK   94  A    between atoms: _219  and  _222
REMARK   95  A    between atoms: _222  and  _223
REMARK   96  A    between atoms: _226  and  _228
REMARK   97  A    between atoms: _228  and  _229
REMARK   98  A    between atoms: _228  and  _231
REMARK   99  A    between atoms: _231  and  _232
REMARK  100  A    between atoms: _235  and  _237
REMARK  101  A    between atoms: _237  and  _238
REMARK  102  A    between atoms: _237  and  _240
REMARK  103  A    between atoms: _240  and  _241
REMARK  104  A    between atoms: _244  and  _246
REMARK  105  A    between atoms: _246  and  _247
REMARK  106  A    between atoms: _246  and  _249
REMARK  107  A    between atoms: _249  and  _250
REMARK  108  A    between atoms: _250  and  _251
REMARK  109  A    between atoms: _253  and  _255
REMARK  110  A    between atoms: _255  and  _256
REMARK  111  A    between atoms: _255  and  _258
REMARK  112  A    between atoms: _258  and  _259
REMARK  113  A    between atoms: _265  and  _267
REMARK  114  A    between atoms: _267  and  _268
REMARK  115  A    between atoms: _267  and  _270
REMARK  116  A    between atoms: _272  and  _274
REMARK  117  A    between atoms: _274  and  _275
REMARK  118  A    between atoms: _278  and  _280
REMARK  119  A    between atoms: _280  and  _281
REMARK  120  A    between atoms: _283  and  _285
REMARK  121  A    between atoms: _285  and  _286
REMARK  122  A    between atoms: _285  and  _288
REMARK  123  A    between atoms: _288  and  _289
REMARK  124  A    between atoms: _289  and  _290
REMARK  125  A    between atoms: _293  and  _295
REMARK  126  A    between atoms: _295  and  _296
REMARK  127  A    between atoms: _295  and  _298
REMARK  128  A    between atoms: _298  and  _299
REMARK  129  A    between atoms: _302  and  _304
REMARK  130  A    between atoms: _304  and  _305
REMARK  131  A    between atoms: _308  and  _310
REMARK  132  A    between atoms: _310  and  _311
REMARK  133  A    between atoms: _310  and  _313
REMARK  134  A    between atoms: _313  and  _314
REMARK  135  A    between atoms: _314  and  _437
REMARK  136  A    between atoms: _315  and  _317
REMARK  137  A    between atoms: _317  and  _318
REMARK  138  A    between atoms: _317  and  _320
REMARK  139  A    between atoms: _320  and  _321
REMARK  140  A    between atoms: _321  and  _322
REMARK  141  A    between atoms: _327  and  _329
REMARK  142  A    between atoms: _329  and  _330
REMARK  143  A    between atoms: _332  and  _334
REMARK  144  A    between atoms: _334  and  _335
REMARK  145  A    between atoms: _334  and  _337
REMARK  146  A    between atoms: _337  and  _338
REMARK  147  A    between atoms: _341  and  _343
REMARK  148  A    between atoms: _343  and  _344
REMARK  149  A    between atoms: _343  and  _346
REMARK  150  A    between atoms: _346  and  _347
REMARK  151  A    between atoms: _349  and  _351
REMARK  152  A    between atoms: _351  and  _352
REMARK  153  A    between atoms: _354  and  _356
REMARK  154  A    between atoms: _356  and  _357
REMARK  155  A    between atoms: _359  and  _361
REMARK  156  A    between atoms: _361  and  _362
REMARK  157  A    between atoms: _361  and  _364
REMARK  158  A    between atoms: _364  and  _365
REMARK  159  A    between atoms: _370  and  _372
REMARK  160  A    between atoms: _372  and  _373
REMARK  161  A    between atoms: _372  and  _375
REMARK  162  A    between atoms: _375  and  _376
REMARK  163  A    between atoms: _379  and  _381
REMARK  164  A    between atoms: _381  and  _382
REMARK  165  A    between atoms: _381  and  _384
REMARK  166  A    between atoms: _387  and  _389
REMARK  167  A    between atoms: _389  and  _390
REMARK  168  A    between atoms: _389  and  _392
REMARK  169  A    between atoms: _392  and  _393
REMARK  170  A    between atoms: _395  and  _397
REMARK  171  A    between atoms: _397  and  _398
REMARK  172  A    between atoms: _397  and  _400
REMARK  173  A    between atoms: _400  and  _401
REMARK  174  A    between atoms: _411  and  _413
REMARK  175  A    between atoms: _413  and  _414
REMARK  176  A    between atoms: _416  and  _418
REMARK  177  A    between atoms: _418  and  _419
REMARK  178  A    between atoms: _418  and  _421
REMARK  179  A    between atoms: _421  and  _422
REMARK  180  A    between atoms: _422  and  _423
REMARK  181  A    between atoms: _426  and  _428
REMARK  182  A    between atoms: _428  and  _429
REMARK  183  A    between atoms: _431  and  _433
REMARK  184  A    between atoms: _433  and  _434
REMARK  185  A    between atoms: _433  and  _436
REMARK  186  A    between atoms: _436  and  _437
REMARK  187  A    between atoms: _438  and  _440
REMARK  188  A    between atoms: _440  and  _441
REMARK  189  A    between atoms: _444  and  _446
REMARK  190  A    between atoms: _446  and  _447
REMARK  191  A    between atoms: _446  and  _449
REMARK  192  A    between atoms: _449  and  _450
REMARK  193  A    between atoms: _450  and  _451
REMARK  194  A    between atoms: _451  and  _452
REMARK  195  A    between atoms: _461  and  _463
REMARK  196  A    between atoms: _463  and  _464
REMARK  197  A    between atoms: _463  and  _466
REMARK  198  A    between atoms: _466  and  _467
REMARK  199  A    between atoms: _467  and  _468
REMARK  200  A    between atoms: _468  and  _469
REMARK  201  A    between atoms: _469  and  _470
REMARK  202  A    between atoms: _474  and  _476
REMARK  203  A    between atoms: _476  and  _477
REMARK  204  A    between atoms: _476  and  _479
REMARK  205  A    between atoms: _479  and  _480
REMARK  206  A    between atoms: _485  and  _486
REMARK  207  A    between atoms: _488  and  _490
REMARK  208  A    between atoms: _490  and  _491
REMARK  209  A    between atoms: _493  and  _495
REMARK  210  A    between atoms: _495  and  _496
REMARK  211  A    between atoms: _495  and  _498
REMARK  212  A    between atoms: _498  and  _499
REMARK  213  A    between atoms: _502  and  _504
REMARK  214  A    between atoms: _504  and  _505
REMARK  215  A    between atoms: _504  and  _507
REMARK  216  A    between atoms: _507  and  _508
REMARK  217  A    between atoms: _513  and  _514
REMARK  218  A    between atoms: _516  and  _518
REMARK  219  A    between atoms: _518  and  _519
REMARK  220  A    between atoms: _518  and  _521
REMARK  221  A    between atoms: _521  and  _522
REMARK                            x       y       z     vdW  Elec       q    Type
REMARK                         _______ _______ _______ _____ _____    ______ ____
ROOT
ATOM      1  CA  VAL A   1      18.292  72.841   9.680  0.00  0.00    +0.133 C 
ENDROOT
BRANCH   1   2
ATOM      2  CB  VAL A   1      16.846  72.443  10.090  0.00  0.00    +0.023 C 
ATOM      3  CG2 VAL A   1      16.233  73.527  10.950  0.00  0.00    +0.002 C 
ATOM      4  CG1 VAL A   1      15.998  72.214   8.863  0.00  0.00    +0.002 C 
ENDBRANCH   1   2
BRANCH   1   5
ATOM      5  N   VAL A   1      18.873  71.885   8.740  0.00  0.00    -0.239 NA
ATOM      6  H   VAL A   1      18.660  70.874   8.861  0.00  0.00    +0.142 HD
ENDBRANCH   1   5
BRANCH   1   7
ATOM      7  C   VAL A   1      19.212  72.782  10.896  0.00  0.00    +0.224 C 
ATOM      8  O   VAL A   1      19.431  71.716  11.469  0.00  0.00    -0.287 OA
ENDBRANCH   1   7
TORSDOF 3
REMARK  Name = ../refined-set-2016/2xbx/2xbx_pocket.pdb
REMARK  221 active torsions:
REMARK  status: ('A' for Active; 'I' for Inactive)
REMARK    1  A    between atoms: _1  and  _3
REMARK    2  A    between atoms: _3  and  _4
REMARK    3  A    between atoms: _3  and  _6
REMARK    4  A    between atoms: _9  and  _11
REMARK    5  A    between atoms: _11  and  _12
REMARK    6  A    between atoms: _11  and  _14
REMARK    7  A    between atoms: _14  and  _15
REMARK    8  A    between atoms: _20  and  _22
REMARK    9  A    between atoms: _22  and  _23
REMARK   10  A    between atoms: _22  and  _25
REMARK   11  A    between atoms: _25  and  _26
REMARK   12  A    between atoms: _26  and  _27
REMARK   13  A    between atoms: _32  and  _34
REMARK   14  A    between atoms: _34  and  _35
REMARK   15  A    between atoms: _34  and  _37
REMARK   16  A    between atoms: _37  and  _38
REMARK   17  A    between atoms: _44  and  _46
REMARK   18  A    between atoms: _46  and  _47
REMARK   19  A    between atoms: _46  and  _49
REMARK   20  A    between atoms: _49  and  _50
REMARK   21  A    between atoms: _53  and  _55
REMARK   22  A    between atoms: _55  and  _56
REMARK   23  A    between atoms: _55  and  _58
REMARK   24  A    between atoms: _58  and  _59
REMARK   25  A    between atoms: _59  and  _60
REMARK   26  A    between atoms: _60  and  _61
REMARK   27  A    between atoms: _61  and  _62
REMARK   28  A    between atoms: _66  and  _68
REMARK   29  A    between atoms: _68  and  _69
REMARK   30  A    between atoms: _68  and  _71
REMARK   31  A    between atoms: _71  and  _72
REMARK   32  A    between atoms: _72  and  _73
REMARK   33  A    between atoms: _76  and  _78
REMARK   34  A    between atoms: _78  and  _79
REMARK   35  A    between atoms: _78  and  _81
REMARK   36  A    between atoms: _81  and  _82
REMARK   37  A    between atoms: _85  and  _87
REMARK   38  A    between atoms: _87  and  _88
REMARK   39  A    between atoms: _87  and  _90
REMARK   40  A    between atoms: _90  and  _91
REMARK   41  A    between atoms: _96  and  _97
REMARK   42  A    between atoms: _99  and  _101
REMARK   43  A    between atoms: _101  and  _102
REMARK   44  A    between atoms: _101  and  _104
REMARK   45  A    between atoms: _104  and  _105
REMARK   46  A    between atoms: _108  and  _110
REMARK   47  A    between atoms: _110  and  _111
REMARK   48  A    between atoms: _110  and  _113
REMARK   49  A    between atoms: _113  and  _114
REMARK   50  A    between atoms: _117  and  _119
REMARK   51  A    between atoms: _119  and  _120
REMARK   52  A    between atoms: _119  and  _122
REMARK   53  A    between atoms: _125  and  _127
REMARK   54  A    between atoms: _127  and  _128
REMARK   55  A    between atoms: _127  and  _130
REMARK   56  A    between atoms: _130  and  _131
REMARK   57  A    between atoms: _131  and  _132
REMARK   58  A    between atoms: _132  and  _133
REMARK   59  A    between atoms: _142  and  _144
REMARK   60  A    between atoms: _144  and  _145
REMARK   61  A    between atoms: _144  and  _147
REMARK   62  A    between atoms: _147  and  _148
REMARK   63  A    between atoms: _153  and  _155
REMARK   64  A    between atoms: _155  and  _156
REMARK   65  A    between atoms: _155  and  _158
REMARK   66  A    between atoms: _158  and  _159
REMARK   67  A    between atoms: _159  and  _160
REMARK   68  A    between atoms: _163  and  _165
REMARK   69  A    between atoms: _165  and  _166
REMARK   70  A    between atoms: _165  and  _168
REMARK   71  A    between atoms: _168  and  _169
REMARK   72  A    between atoms: _169  and  _170
REMARK   73  A    between atoms: _170  and  _171
REMARK   74  A    between atoms: _171  and  _172
REMARK   75  A    between atoms: _176  and  _178
REMARK   76  A    between atoms: _178  and  _179
REMARK   77  A    between atoms: _181  and  _183
REMARK   78  A    between atoms: _183  and  _184
REMARK   79  A    between atoms: _183  and  _186
REMARK   80  A    between atoms: _189  and  _191
REMARK   81  A    between atoms: _191  and  _192
REMARK   82  A    between atoms: _191  and  _194
REMARK   83  A    between atoms: _194  and  _195
REMARK   84  A    between atoms: _197  and  _199
REMARK   85  A    between atoms: _199  and  _200
REMARK   86  A    between atoms: _199  and  _202
REMARK   87  A    between atoms: _202  and  _203
REMARK   88  A    between atoms: _205  and  _207
REMARK   89  A    between atoms: _207  and  _208
REMARK   90  A    between atoms: _207  and  _210
REMARK   91  A    between atoms: _210  and  _211
REMARK   92  A    between atoms: _217  and  _219
REMARK   93  A    between atoms: _219  and  _220
REMARK   94  A    between atoms: _219  and  _222
REMARK   95  A    between atoms: _222  and  _223
REMARK   96  A    between atoms: _226  and  _228
REMARK   97  A    between atoms: _228  and  _229
REMARK   98  A    between atoms: _228  and  _231
REMARK   99  A    between atoms: _231  and  _232
REMARK  100  A    between atoms: _235  and  _237
REMARK  101  A    between atoms: _237  and  _238
REMARK  102  A    between atoms: _237  and  _240
REMARK  103  A    between atoms: _240  and  _241
REMARK  104  A    between atoms: _244  and  _246
REMARK  105  A    between atoms: _246  and  _247
REMARK  106  A    between atoms: _246  and  _249
REMARK  107  A    between atoms: _249  and  _250
REMARK  108  A    between atoms: _250  and  _251
REMARK  109  A    between atoms: _253  and  _255
REMARK  110  A    between atoms: _255  and  _256
REMARK  111  A    between atoms: _255  and  _258
REMARK  112  A    between atoms: _258  and  _259
REMARK  113  A    between atoms: _265  and  _267
REMARK  114  A    between atoms: _267  and  _268
REMARK  115  A    between atoms: _267  and  _270
REMARK  116  A    between atoms: _272  and  _274
REMARK  117  A    between atoms: _274  and  _275
REMARK  118  A    between atoms: _278  and  _280
REMARK  119  A    between atoms: _280  and  _281
REMARK  120  A    between atoms: _283  and  _285
REMARK  121  A    between atoms: _285  and  _286
REMARK  122  A    between atoms: _285  and  _288
REMARK  123  A    between atoms: _288  and  _289
REMARK  124  A    between atoms: _289  and  _290
REMARK  125  A    between atoms: _293  and  _295
REMARK  126  A    between atoms: _295  and  _296
REMARK  127  A    between atoms: _295  and  _298
REMARK  128  A    between atoms: _298  and  _299
REMARK  129  A    between atoms: _302  and  _304
REMARK  130  A    between atoms: _304  and  _305
REMARK  131  A    between atoms: _308  and  _310
REMARK  132  A    between atoms: _310  and  _311
REMARK  133  A    between atoms: _310  and  _313
REMARK  134  A    between atoms: _313  and  _314
REMARK  135  A    between atoms: _314  and  _437
REMARK  136  A    between atoms: _315  and  _317
REMARK  137  A    between atoms: _317  and  _318
REMARK  138  A    between atoms: _317  and  _320
REMARK  139  A    between atoms: _320  and  _321
REMARK  140  A    between atoms: _321  and  _322
REMARK  141  A    between atoms: _327  and  _329
REMARK  142  A    between atoms: _329  and  _330
REMARK  143  A    between atoms: _332  and  _334
REMARK  144  A    between atoms: _334  and  _335
REMARK  145  A    between atoms: _334  and  _337
REMARK  146  A    between atoms: _337  and  _338
REMARK  147  A    between atoms: _341  and  _343
REMARK  148  A    between atoms: _343  and  _344
REMARK  149  A    between atoms: _343  and  _346
REMARK  150  A    between atoms: _346  and  _347
REMARK  151  A    between atoms: _349  and  _351
REMARK  152  A    between atoms: _351  and  _352
REMARK  153  A    between atoms: _354  and  _356
REMARK  154  A    between atoms: _356  and  _357
REMARK  155  A    between atoms: _359  and  _361
REMARK  156  A    between atoms: _361  and  _362
REMARK  157  A    between atoms: _361  and  _364
REMARK  158  A    between atoms: _364  and  _365
REMARK  159  A    between atoms: _370  and  _372
REMARK  160  A    between atoms: _372  and  _373
REMARK  161  A    between atoms: _372  and  _375
REMARK  162  A    between atoms: _375  and  _376
REMARK  163  A    between atoms: _379  and  _381
REMARK  164  A    between atoms: _381  and  _382
REMARK  165  A    between atoms: _381  and  _384
REMARK  166  A    between atoms: _387  and  _389
REMARK  167  A    between atoms: _389  and  _390
REMARK  168  A    between atoms: _389  and  _392
REMARK  169  A    between atoms: _392  and  _393
REMARK  170  A    between atoms: _395  and  _397
REMARK  171  A    between atoms: _397  and  _398
REMARK  172  A    between atoms: _397  and  _400
REMARK  173  A    between atoms: _400  and  _401
REMARK  174  A    between atoms: _411  and  _413
REMARK  175  A    between atoms: _413  and  _414
REMARK  176  A    between atoms: _416  and  _418
REMARK  177  A    between atoms: _418  and  _419
REMARK  178  A    between atoms: _418  and  _421
REMARK  179  A    between atoms: _421  and  _422
REMARK  180  A    between atoms: _422  and  _423
REMARK  181  A    between atoms: _426  and  _428
REMARK  182  A    between atoms: _428  and  _429
REMARK  183  A    between atoms: _431  and  _433
REMARK  184  A    between atoms: _433  and  _434
REMARK  185  A    between atoms: _433  and  _436
REMARK  186  A    between atoms: _436  and  _437
REMARK  187  A    between atoms: _438  and  _440
REMARK  188  A    between atoms: _440  and  _441
REMARK  189  A    between atoms: _444  and  _446
REMARK  190  A    between atoms: _446  and  _447
REMARK  191  A    between atoms: _446  and  _449
REMARK  192  A    between atoms: _449  and  _450
REMARK  193  A    between atoms: _450  and  _451
REMARK  194  A    between atoms: _451  and  _452
REMARK  195  A    between atoms: _461  and  _463
REMARK  196  A    between atoms: _463  and  _464
REMARK  197  A    between atoms: _463  and  _466
REMARK  198  A    between atoms: _466  and  _467
REMARK  199  A    between atoms: _467  and  _468
REMARK  200  A    between atoms: _468  and  _469
REMARK  201  A    between atoms: _469  and  _470
REMARK  202  A    between atoms: _474  and  _476
REMARK  203  A    between atoms: _476  and  _477
REMARK  204  A    between atoms: _476  and  _479
REMARK  205  A    between atoms: _479  and  _480
REMARK  206  A    between atoms: _485  and  _486
REMARK  207  A    between atoms: _488  and  _490
REMARK  208  A    between atoms: _490  and  _491
REMARK  209  A    between atoms: _493  and  _495
REMARK  210  A    between atoms: _495  and  _496
REMARK  211  A    between atoms: _495  and  _498
REMARK  212  A    between atoms: _498  and  _499
REMARK  213  A    between atoms: _502  and  _504
REMARK  214  A    between atoms: _504  and  _505
REMARK  215  A    between atoms: _504  and  _507
REMARK  216  A    between atoms: _507  and  _508
REMARK  217  A    between atoms: _513  and  _514
REMARK  218  A    between atoms: _516  and  _518
REMARK  219  A    between atoms: _518  and  _519
REMARK  220  A    between atoms: _518  and  _521
REMARK  221  A    between atoms: _521  and  _522
REMARK                            x       y       z     vdW  Elec       q    Type
REMARK                         _______ _______ _______ _____ _____    ______ ____
ROOT
ATOM      1  CB  HIS A   1      12.545  59.203  -3.647  0.00  0.00    +0.072 C 
ENDROOT
BRANCH   1   2
ATOM      2  CG  HIS A   1      13.246  60.189  -2.759  0.00  0.00    +0.082 A 
ATOM      3  ND1 HIS A   1      13.997  59.807  -1.666  0.00  0.00    -0.227 NA
ATOM      4  CE1 HIS A   1      14.411  60.887  -1.023  0.00  0.00    +0.199 A 
ATOM      5  NE2 HIS A   1      13.958  61.954  -1.662  0.00  0.00    -0.221 NA
ATOM      6  CD2 HIS A   1      13.234  61.542  -2.756  0.00  0.00    +0.115 A 
ENDBRANCH   1   2
BRANCH   1   7
ATOM      7  CA  HIS A   1      13.295  58.866  -4.948  0.00  0.00    +0.139 C 
BRANCH   7   8
ATOM      8  N   HIS A   1      14.358  57.885  -4.725  0.00  0.00    -0.239 NA
ATOM      9  H   HIS A   1      14.649  57.618  -3.763  0.00  0.00    +0.142 HD
ENDBRANCH   7   8
BRANCH   7  10
ATOM     10  C   HIS A   1      13.776  60.138  -5.617  0.00  0.00    +0.224 C 
ATOM     11  O   HIS A   1      12.993  60.873  -6.230  0.00  0.00    -0.287 OA
ENDBRANCH   7  10
ENDBRANCH   1   7
TORSDOF 4
REMARK  Name = ../refined-set-2016/2xbx/2xbx_pocket.pdb
REMARK  221 active torsions:
REMARK  status: ('A' for Active; 'I' for Inactive)
REMARK    1  A    between atoms: _1  and  _3
REMARK    2  A    between atoms: _3  and  _4
REMARK    3  A    between atoms: _3  and  _6
REMARK    4  A    between atoms: _9  and  _11
REMARK    5  A    between atoms: _11  and  _12
REMARK    6  A    between atoms: _11  and  _14
REMARK    7  A    between atoms: _14  and  _15
REMARK    8  A    between atoms: _20  and  _22
REMARK    9  A    between atoms: _22  and  _23
REMARK   10  A    between atoms: _22  and  _25
REMARK   11  A    between atoms: _25  and  _26
REMARK   12  A    between atoms: _26  and  _27
REMARK   13  A    between atoms: _32  and  _34
REMARK   14  A    between atoms: _34  and  _35
REMARK   15  A    between atoms: _34  and  _37
REMARK   16  A    between atoms: _37  and  _38
REMARK   17  A    between atoms: _44  and  _46
REMARK   18  A    between atoms: _46  and  _47
REMARK   19  A    between atoms: _46  and  _49
REMARK   20  A    between atoms: _49  and  _50
REMARK   21  A    between atoms: _53  and  _55
REMARK   22  A    between atoms: _55  and  _56
REMARK   23  A    between atoms: _55  and  _58
REMARK   24  A    between atoms: _58  and  _59
REMARK   25  A    between atoms: _59  and  _60
REMARK   26  A    between atoms: _60  and  _61
REMARK   27  A    between atoms: _61  and  _62
REMARK   28  A    between atoms: _66  and  _68
REMARK   29  A    between atoms: _68  and  _69
REMARK   30  A    between atoms: _68  and  _71
REMARK   31  A    between atoms: _71  and  _72
REMARK   32  A    between atoms: _72  and  _73
REMARK   33  A    between atoms: _76  and  _78
REMARK   34  A    between atoms: _78  and  _79
REMARK   35  A    between atoms: _78  and  _81
REMARK   36  A    between atoms: _81  and  _82
REMARK   37  A    between atoms: _85  and  _87
REMARK   38  A    between atoms: _87  and  _88
REMARK   39  A    between atoms: _87  and  _90
REMARK   40  A    between atoms: _90  and  _91
REMARK   41  A    between atoms: _96  and  _97
REMARK   42  A    between atoms: _99  and  _101
REMARK   43  A    between atoms: _101  and  _102
REMARK   44  A    between atoms: _101  and  _104
REMARK   45  A    between atoms: _104  and  _105
REMARK   46  A    between atoms: _108  and  _110
REMARK   47  A    between atoms: _110  and  _111
REMARK   48  A    between atoms: _110  and  _113
REMARK   49  A    between atoms: _113  and  _114
REMARK   50  A    between atoms: _117  and  _119
REMARK   51  A    between atoms: _119  and  _120
REMARK   52  A    between atoms: _119  and  _122
REMARK   53  A    between atoms: _125  and  _127
REMARK   54  A    between atoms: _127  and  _128
REMARK   55  A    between atoms: _127  and  _130
REMARK   56  A    between atoms: _130  and  _131
REMARK   57  A    between atoms: _131  and  _132
REMARK   58  A    between atoms: _132  and  _133
REMARK   59  A    between atoms: _142  and  _144
REMARK   60  A    between atoms: _144  and  _145
REMARK   61  A    between atoms: _144  and  _147
REMARK   62  A    between atoms: _147  and  _148
REMARK   63  A    between atoms: _153  and  _155
REMARK   64  A    between atoms: _155  and  _156
REMARK   65  A    between atoms: _155  and  _158
REMARK   66  A    between atoms: _158  and  _159
REMARK   67  A    between atoms: _159  and  _160
REMARK   68  A    between atoms: _163  and  _165
REMARK   69  A    between atoms: _165  and  _166
REMARK   70  A    between atoms: _165  and  _168
REMARK   71  A    between atoms: _168  and  _169
REMARK   72  A    between atoms: _169  and  _170
REMARK   73  A    between atoms: _170  and  _171
REMARK   74  A    between atoms: _171  and  _172
REMARK   75  A    between atoms: _176  and  _178
REMARK   76  A    between atoms: _178  and  _179
REMARK   77  A    between atoms: _181  and  _183
REMARK   78  A    between atoms: _183  and  _184
REMARK   79  A    between atoms: _183  and  _186
REMARK   80  A    between atoms: _189  and  _191
REMARK   81  A    between atoms: _191  and  _192
REMARK   82  A    between atoms: _191  and  _194
REMARK   83  A    between atoms: _194  and  _195
REMARK   84  A    between atoms: _197  and  _199
REMARK   85  A    between atoms: _199  and  _200
REMARK   86  A    between atoms: _199  and  _202
REMARK   87  A    between atoms: _202  and  _203
REMARK   88  A    between atoms: _205  and  _207
REMARK   89  A    between atoms: _207  and  _208
REMARK   90  A    between atoms: _207  and  _210
REMARK   91  A    between atoms: _210  and  _211
REMARK   92  A    between atoms: _217  and  _219
REMARK   93  A    between atoms: _219  and  _220
REMARK   94  A    between atoms: _219  and  _222
REMARK   95  A    between atoms: _222  and  _223
REMARK   96  A    between atoms: _226  and  _228
REMARK   97  A    between atoms: _228  and  _229
REMARK   98  A    between atoms: _228  and  _231
REMARK   99  A    between atoms: _231  and  _232
REMARK  100  A    between atoms: _235  and  _237
REMARK  101  A    between atoms: _237  and  _238
REMARK  102  A    between atoms: _237  and  _240
REMARK  103  A    between atoms: _240  and  _241
REMARK  104  A    between atoms: _244  and  _246
REMARK  105  A    between atoms: _246  and  _247
REMARK  106  A    between atoms: _246  and  _249
REMARK  107  A    between atoms: _249  and  _250
REMARK  108  A    between atoms: _250  and  _251
REMARK  109  A    between atoms: _253  and  _255
REMARK  110  A    between atoms: _255  and  _256
REMARK  111  A    between atoms: _255  and  _258
REMARK  112  A    between atoms: _258  and  _259
REMARK  113  A    between atoms: _265  and  _267
REMARK  114  A    between atoms: _267  and  _268
REMARK  115  A    between atoms: _267  and  _270
REMARK  116  A    between atoms: _272  and  _274
REMARK  117  A    between atoms: _274  and  _275
REMARK  118  A    between atoms: _278  and  _280
REMARK  119  A    between atoms: _280  and  _281
REMARK  120  A    between atoms: _283  and  _285
REMARK  121  A    between atoms: _285  and  _286
REMARK  122  A    between atoms: _285  and  _288
REMARK  123  A    between atoms: _288  and  _289
REMARK  124  A    between atoms: _289  and  _290
REMARK  125  A    between atoms: _293  and  _295
REMARK  126  A    between atoms: _295  and  _296
REMARK  127  A    between atoms: _295  and  _298
REMARK  128  A    between atoms: _298  and  _299
REMARK  129  A    between atoms: _302  and  _304
REMARK  130  A    between atoms: _304  and  _305
REMARK  131  A    between atoms: _308  and  _310
REMARK  132  A    between atoms: _310  and  _311
REMARK  133  A    between atoms: _310  and  _313
REMARK  134  A    between atoms: _313  and  _314
REMARK  135  A    between atoms: _314  and  _437
REMARK  136  A    between atoms: _315  and  _317
REMARK  137  A    between atoms: _317  and  _318
REMARK  138  A    between atoms: _317  and  _320
REMARK  139  A    between atoms: _320  and  _321
REMARK  140  A    between atoms: _321  and  _322
REMARK  141  A    between atoms: _327  and  _329
REMARK  142  A    between atoms: _329  and  _330
REMARK  143  A    between atoms: _332  and  _334
REMARK  144  A    between atoms: _334  and  _335
REMARK  145  A    between atoms: _334  and  _337
REMARK  146  A    between atoms: _337  and  _338
REMARK  147  A    between atoms: _341  and  _343
REMARK  148  A    between atoms: _343  and  _344
REMARK  149  A    between atoms: _343  and  _346
REMARK  150  A    between atoms: _346  and  _347
REMARK  151  A    between atoms: _349  and  _351
REMARK  152  A    between atoms: _351  and  _352
REMARK  153  A    between atoms: _354  and  _356
REMARK  154  A    between atoms: _356  and  _357
REMARK  155  A    between atoms: _359  and  _361
REMARK  156  A    between atoms: _361  and  _362
REMARK  157  A    between atoms: _361  and  _364
REMARK  158  A    between atoms: _364  and  _365
REMARK  159  A    between atoms: _370  and  _372
REMARK  160  A    between atoms: _372  and  _373
REMARK  161  A    between atoms: _372  and  _375
REMARK  162  A    between atoms: _375  and  _376
REMARK  163  A    between atoms: _379  and  _381
REMARK  164  A    between atoms: _381  and  _382
REMARK  165  A    between atoms: _381  and  _384
REMARK  166  A    between atoms: _387  and  _389
REMARK  167  A    between atoms: _389  and  _390
REMARK  168  A    between atoms: _389  and  _392
REMARK  169  A    between atoms: _392  and  _393
REMARK  170  A    between atoms: _395  and  _397
REMARK  171  A    between atoms: _397  and  _398
REMARK  172  A    between atoms: _397  and  _400
REMARK  173  A    between atoms: _400  and  _401
REMARK  174  A    between atoms: _411  and  _413
REMARK  175  A    between atoms: _413  and  _414
REMARK  176  A    between atoms: _416  and  _418
REMARK  177  A    between atoms: _418  and  _419
REMARK  178  A    between atoms: _418  and  _421
REMARK  179  A    between atoms: _421  and  _422
REMARK  180  A    between atoms: _422  and  _423
REMARK  181  A    between atoms: _426  and  _428
REMARK  182  A    between atoms: _428  and  _429
REMARK  183  A    between atoms: _431  and  _433
REMARK  184  A    between atoms: _433  and  _434
REMARK  185  A    between atoms: _433  and  _436
REMARK  186  A    between atoms: _436  and  _437
REMARK  187  A    between atoms: _438  and  _440
REMARK  188  A    between atoms: _440  and  _441
REMARK  189  A    between atoms: _444  and  _446
REMARK  190  A    between atoms: _446  and  _447
REMARK  191  A    between atoms: _446  and  _449
REMARK  192  A    between atoms: _449  and  _450
REMARK  193  A    between atoms: _450  and  _451
REMARK  194  A    between atoms: _451  and  _452
REMARK  195  A    between atoms: _461  and  _463
REMARK  196  A    between atoms: _463  and  _464
REMARK  197  A    between atoms: _463  and  _466
REMARK  198  A    between atoms: _466  and  _467
REMARK  199  A    between atoms: _467  and  _468
REMARK  200  A    between atoms: _468  and  _469
REMARK  201  A    between atoms: _469  and  _470
REMARK  202  A    between atoms: _474  and  _476
REMARK  203  A    between atoms: _476  and  _477
REMARK  204  A    between atoms: _476  and  _479
REMARK  205  A    between atoms: _479  and  _480
REMARK  206  A    between atoms: _485  and  _486
REMARK  207  A    between atoms: _488  and  _490
REMARK  208  A    between atoms: _490  and  _491
REMARK  209  A    between atoms: _493  and  _495
REMARK  210  A    between atoms: _495  and  _496
REMARK  211  A    between atoms: _495  and  _498
REMARK  212  A    between atoms: _498  and  _499
REMARK  213  A    between atoms: _502  and  _504
REMARK  214  A    between atoms: _504  and  _505
REMARK  215  A    between atoms: _504  and  _507
REMARK  216  A    between atoms: _507  and  _508
REMARK  217  A    between atoms: _513  and  _514
REMARK  218  A    between atoms: _516  and  _518
REMARK  219  A    between atoms: _518  and  _519
REMARK  220  A    between atoms: _518  and  _521
REMARK  221  A    between atoms: _521  and  _522
REMARK                            x       y       z     vdW  Elec       q    Type
REMARK                         _______ _______ _______ _____ _____    ______ ____
ROOT
ATOM      1  CB  GLN A   1      13.163  65.350  -7.944  0.00  0.00    +0.035 C 
ENDROOT
BRANCH   1   2
ATOM      2  CA  GLN A   1      12.604  64.871  -9.282  0.00  0.00    +0.134 C 
BRANCH   2   3
ATOM      3  N   GLN A   1      12.694  63.412  -9.368  0.00  0.00    -0.239 NA
ATOM      4  H   GLN A   1      13.435  62.920  -8.829  0.00  0.00    +0.142 HD
ENDBRANCH   2   3
BRANCH   2   5
ATOM      5  C   GLN A   1      13.219  65.748 -10.353  0.00  0.00    +0.224 C 
ATOM      6  O   GLN A   1      13.160  66.973 -10.236  0.00  0.00    -0.287 OA
ENDBRANCH   2   5
ENDBRANCH   1   2
BRANCH   1   7
ATOM      7  CG  GLN A   1      12.562  64.692  -6.752  0.00  0.00    +0.087 C 
BRANCH   7   8
ATOM      8  CD  GLN A   1      13.252  65.122  -5.470  0.00  0.00    +0.219 C 
ATOM      9  OE1 GLN A   1      13.142  64.454  -4.459  0.00  0.00    -0.275 OA
ATOM     10  NE2 GLN A   1      13.967  66.252  -5.514  0.00  0.00    -0.329 N 
ATOM     11 HE21 GLN A   1      14.456  66.591  -4.661  0.00  0.00    +0.145 HD
ATOM     12 HE22 GLN A   1      14.033  66.791  -6.401  0.00  0.00    +0.145 HD
ENDBRANCH   7   8
ENDBRANCH   1   7
TORSDOF 5
REMARK  Name = ../refined-set-2016/2xbx/2xbx_pocket.pdb
REMARK  221 active torsions:
REMARK  status: ('A' for Active; 'I' for Inactive)
REMARK    1  A    between atoms: _1  and  _3
REMARK    2  A    between atoms: _3  and  _4
REMARK    3  A    between atoms: _3  and  _6
REMARK    4  A    between atoms: _9  and  _11
REMARK    5  A    between atoms: _11  and  _12
REMARK    6  A    between atoms: _11  and  _14
REMARK    7  A    between atoms: _14  and  _15
REMARK    8  A    between atoms: _20  and  _22
REMARK    9  A    between atoms: _22  and  _23
REMARK   10  A    between atoms: _22  and  _25
REMARK   11  A    between atoms: _25  and  _26
REMARK   12  A    between atoms: _26  and  _27
REMARK   13  A    between atoms: _32  and  _34
REMARK   14  A    between atoms: _34  and  _35
REMARK   15  A    between atoms: _34  and  _37
REMARK   16  A    between atoms: _37  and  _38
REMARK   17  A    between atoms: _44  and  _46
REMARK   18  A    between atoms: _46  and  _47
REMARK   19  A    between atoms: _46  and  _49
REMARK   20  A    between atoms: _49  and  _50
REMARK   21  A    between atoms: _53  and  _55
REMARK   22  A    between atoms: _55  and  _56
REMARK   23  A    between atoms: _55  and  _58
REMARK   24  A    between atoms: _58  and  _59
REMARK   25  A    between atoms: _59  and  _60
REMARK   26  A    between atoms: _60  and  _61
REMARK   27  A    between atoms: _61  and  _62
REMARK   28  A    between atoms: _66  and  _68
REMARK   29  A    between atoms: _68  and  _69
REMARK   30  A    between atoms: _68  and  _71
REMARK   31  A    between atoms: _71  and  _72
REMARK   32  A    between atoms: _72  and  _73
REMARK   33  A    between atoms: _76  and  _78
REMARK   34  A    between atoms: _78  and  _79
REMARK   35  A    between atoms: _78  and  _81
REMARK   36  A    between atoms: _81  and  _82
REMARK   37  A    between atoms: _85  and  _87
REMARK   38  A    between atoms: _87  and  _88
REMARK   39  A    between atoms: _87  and  _90
REMARK   40  A    between atoms: _90  and  _91
REMARK   41  A    between atoms: _96  and  _97
REMARK   42  A    between atoms: _99  and  _101
REMARK   43  A    between atoms: _101  and  _102
REMARK   44  A    between atoms: _101  and  _104
REMARK   45  A    between atoms: _104  and  _105
REMARK   46  A    between atoms: _108  and  _110
REMARK   47  A    between atoms: _110  and  _111
REMARK   48  A    between atoms: _110  and  _113
REMARK   49  A    between atoms: _113  and  _114
REMARK   50  A    between atoms: _117  and  _119
REMARK   51  A    between atoms: _119  and  _120
REMARK   52  A    between atoms: _119  and  _122
REMARK   53  A    between atoms: _125  and  _127
REMARK   54  A    between atoms: _127  and  _128
REMARK   55  A    between atoms: _127  and  _130
REMARK   56  A    between atoms: _130  and  _131
REMARK   57  A    between atoms: _131  and  _132
REMARK   58  A    between atoms: _132  and  _133
REMARK   59  A    between atoms: _142  and  _144
REMARK   60  A    between atoms: _144  and  _145
REMARK   61  A    between atoms: _144  and  _147
REMARK   62  A    between atoms: _147  and  _148
REMARK   63  A    between atoms: _153  and  _155
REMARK   64  A    between atoms: _155  and  _156
REMARK   65  A    between atoms: _155  and  _158
REMARK   66  A    between atoms: _158  and  _159
REMARK   67  A    between atoms: _159  and  _160
REMARK   68  A    between atoms: _163  and  _165
REMARK   69  A    between atoms: _165  and  _166
REMARK   70  A    between atoms: _165  and  _168
REMARK   71  A    between atoms: _168  and  _169
REMARK   72  A    between atoms: _169  and  _170
REMARK   73  A    between atoms: _170  and  _171
REMARK   74  A    between atoms: _171  and  _172
REMARK   75  A    between atoms: _176  and  _178
REMARK   76  A    between atoms: _178  and  _179
REMARK   77  A    between atoms: _181  and  _183
REMARK   78  A    between atoms: _183  and  _184
REMARK   79  A    between atoms: _183  and  _186
REMARK   80  A    between atoms: _189  and  _191
REMARK   81  A    between atoms: _191  and  _192
REMARK   82  A    between atoms: _191  and  _194
REMARK   83  A    between atoms: _194  and  _195
REMARK   84  A    between atoms: _197  and  _199
REMARK   85  A    between atoms: _199  and  _200
REMARK   86  A    between atoms: _199  and  _202
REMARK   87  A    between atoms: _202  and  _203
REMARK   88  A    between atoms: _205  and  _207
REMARK   89  A    between atoms: _207  and  _208
REMARK   90  A    between atoms: _207  and  _210
REMARK   91  A    between atoms: _210  and  _211
REMARK   92  A    between atoms: _217  and  _219
REMARK   93  A    between atoms: _219  and  _220
REMARK   94  A    between atoms: _219  and  _222
REMARK   95  A    between atoms: _222  and  _223
REMARK   96  A    between atoms: _226  and  _228
REMARK   97  A    between atoms: _228  and  _229
REMARK   98  A    between atoms: _228  and  _231
REMARK   99  A    between atoms: _231  and  _232
REMARK  100  A    between atoms: _235  and  _237
REMARK  101  A    between atoms: _237  and  _238
REMARK  102  A    between atoms: _237  and  _240
REMARK  103  A    between atoms: _240  and  _241
REMARK  104  A    between atoms: _244  and  _246
REMARK  105  A    between atoms: _246  and  _247
REMARK  106  A    between atoms: _246  and  _249
REMARK  107  A    between atoms: _249  and  _250
REMARK  108  A    between atoms: _250  and  _251
REMARK  109  A    between atoms: _253  and  _255
REMARK  110  A    between atoms: _255  and  _256
REMARK  111  A    between atoms: _255  and  _258
REMARK  112  A    between atoms: _258  and  _259
REMARK  113  A    between atoms: _265  and  _267
REMARK  114  A    between atoms: _267  and  _268
REMARK  115  A    between atoms: _267  and  _270
REMARK  116  A    between atoms: _272  and  _274
REMARK  117  A    between atoms: _274  and  _275
REMARK  118  A    between atoms: _278  and  _280
REMARK  119  A    between atoms: _280  and  _281
REMARK  120  A    between atoms: _283  and  _285
REMARK  121  A    between atoms: _285  and  _286
REMARK  122  A    between atoms: _285  and  _288
REMARK  123  A    between atoms: _288  and  _289
REMARK  124  A    between atoms: _289  and  _290
REMARK  125  A    between atoms: _293  and  _295
REMARK  126  A    between atoms: _295  and  _296
REMARK  127  A    between atoms: _295  and  _298
REMARK  128  A    between atoms: _298  and  _299
REMARK  129  A    between atoms: _302  and  _304
REMARK  130  A    between atoms: _304  and  _305
REMARK  131  A    between atoms: _308  and  _310
REMARK  132  A    between atoms: _310  and  _311
REMARK  133  A    between atoms: _310  and  _313
REMARK  134  A    between atoms: _313  and  _314
REMARK  135  A    between atoms: _314  and  _437
REMARK  136  A    between atoms: _315  and  _317
REMARK  137  A    between atoms: _317  and  _318
REMARK  138  A    between atoms: _317  and  _320
REMARK  139  A    between atoms: _320  and  _321
REMARK  140  A    between atoms: _321  and  _322
REMARK  141  A    between atoms: _327  and  _329
REMARK  142  A    between atoms: _329  and  _330
REMARK  143  A    between atoms: _332  and  _334
REMARK  144  A    between atoms: _334  and  _335
REMARK  145  A    between atoms: _334  and  _337
REMARK  146  A    between atoms: _337  and  _338
REMARK  147  A    between atoms: _341  and  _343
REMARK  148  A    between atoms: _343  and  _344
REMARK  149  A    between atoms: _343  and  _346
REMARK  150  A    between atoms: _346  and  _347
REMARK  151  A    between atoms: _349  and  _351
REMARK  152  A    between atoms: _351  and  _352
REMARK  153  A    between atoms: _354  and  _356
REMARK  154  A    between atoms: _356  and  _357
REMARK  155  A    between atoms: _359  and  _361
REMARK  156  A    between atoms: _361  and  _362
REMARK  157  A    between atoms: _361  and  _364
REMARK  158  A    between atoms: _364  and  _365
REMARK  159  A    between atoms: _370  and  _372
REMARK  160  A    between atoms: _372  and  _373
REMARK  161  A    between atoms: _372  and  _375
REMARK  162  A    between atoms: _375  and  _376
REMARK  163  A    between atoms: _379  and  _381
REMARK  164  A    between atoms: _381  and  _382
REMARK  165  A    between atoms: _381  and  _384
REMARK  166  A    between atoms: _387  and  _389
REMARK  167  A    between atoms: _389  and  _390
REMARK  168  A    between atoms: _389  and  _392
REMARK  169  A    between atoms: _392  and  _393
REMARK  170  A    between atoms: _395  and  _397
REMARK  171  A    between atoms: _397  and  _398
REMARK  172  A    between atoms: _397  and  _400
REMARK  173  A    between atoms: _400  and  _401
REMARK  174  A    between atoms: _411  and  _413
REMARK  175  A    between atoms: _413  and  _414
REMARK  176  A    between atoms: _416  and  _418
REMARK  177  A    between atoms: _418  and  _419
REMARK  178  A    between atoms: _418  and  _421
REMARK  179  A    between atoms: _421  and  _422
REMARK  180  A    between atoms: _422  and  _423
REMARK  181  A    between atoms: _426  and  _428
REMARK  182  A    between atoms: _428  and  _429
REMARK  183  A    between atoms: _431  and  _433
REMARK  184  A    between atoms: _433  and  _434
REMARK  185  A    between atoms: _433  and  _436
REMARK  186  A    between atoms: _436  and  _437
REMARK  187  A    between atoms: _438  and  _440
REMARK  188  A    between atoms: _440  and  _441
REMARK  189  A    between atoms: _444  and  _446
REMARK  190  A    between atoms: _446  and  _447
REMARK  191  A    between atoms: _446  and  _449
REMARK  192  A    between atoms: _449  and  _450
REMARK  193  A    between atoms: _450  and  _451
REMARK  194  A    between atoms: _451  and  _452
REMARK  195  A    between atoms: _461  and  _463
REMARK  196  A    between atoms: _463  and  _464
REMARK  197  A    between atoms: _463  and  _466
REMARK  198  A    between atoms: _466  and  _467
REMARK  199  A    between atoms: _467  and  _468
REMARK  200  A    between atoms: _468  and  _469
REMARK  201  A    between atoms: _469  and  _470
REMARK  202  A    between atoms: _474  and  _476
REMARK  203  A    between atoms: _476  and  _477
REMARK  204  A    between atoms: _476  and  _479
REMARK  205  A    between atoms: _479  and  _480
REMARK  206  A    between atoms: _485  and  _486
REMARK  207  A    between atoms: _488  and  _490
REMARK  208  A    between atoms: _490  and  _491
REMARK  209  A    between atoms: _493  and  _495
REMARK  210  A    between atoms: _495  and  _496
REMARK  211  A    between atoms: _495  and  _498
REMARK  212  A    between atoms: _498  and  _499
REMARK  213  A    between atoms: _502  and  _504
REMARK  214  A    between atoms: _504  and  _505
REMARK  215  A    between atoms: _504  and  _507
REMARK  216  A    between atoms: _507  and  _508
REMARK  217  A    between atoms: _513  and  _514
REMARK  218  A    between atoms: _516  and  _518
REMARK  219  A    between atoms: _518  and  _519
REMARK  220  A    between atoms: _518  and  _521
REMARK  221  A    between atoms: _521  and  _522
REMARK                            x       y       z     vdW  Elec       q    Type
REMARK                         _______ _______ _______ _____ _____    ______ ____
ROOT
ATOM      1  CA  GLU A   4       4.005  54.101  -1.614  0.00  0.00    +0.149 C 
ENDROOT
BRANCH   1   4
ATOM      2  C   LYS A   3       5.693  55.621  -2.349  0.00  0.00    +0.241 C 
ATOM      3  O   LYS A   3       5.437  56.361  -1.407  0.00  0.00    -0.273 OA
ATOM      4  N   GLU A   4       5.048  54.485  -2.543  0.00  0.00    -0.297 N 
ATOM      5  H   GLU A   4       5.285  53.875  -3.351  0.00  0.00    +0.150 HD
BRANCH   2   6
ATOM      6  CA  LYS A   3       6.788  55.949  -3.340  0.00  0.00    +0.149 C 
BRANCH   6   9
ATOM      7  C   THR A   2       7.828  53.765  -3.586  0.00  0.00    +0.243 C 
ATOM      8  O   THR A   2       8.151  53.769  -2.414  0.00  0.00    -0.273 OA
ATOM      9  N   LYS A   3       7.163  54.771  -4.146  0.00  0.00    -0.297 N 
ATOM     10  H   LYS A   3       6.907  54.728  -5.153  0.00  0.00    +0.150 HD
BRANCH   7  11
ATOM     11  CA  THR A   2       8.157  52.568  -4.460  0.00  0.00    +0.176 C 
BRANCH  11  13
ATOM     12  C   PHE A   1      10.283  51.508  -4.972  0.00  0.00    +0.239 C 
ATOM     13  N   THR A   2       9.484  52.100  -4.095  0.00  0.00    -0.295 N 
ATOM     14  H   THR A   2       9.816  52.233  -3.118  0.00  0.00    +0.150 HD
ATOM     15  O   PHE A   1       9.948  51.248  -6.146  0.00  0.00    -0.274 OA
BRANCH  12  16
ATOM     16  CA  PHE A   1      11.675  51.164  -4.466  0.00  0.00    +0.149 C 
BRANCH  16  17
ATOM     17  N   PHE A   1      12.070  49.871  -4.980  0.00  0.00    -0.238 NA
ATOM     18  H   PHE A   1      12.869  49.779  -5.640  0.00  0.00    +0.142 HD
ENDBRANCH  16  17
BRANCH  16  19
ATOM     19  CB  PHE A   1      12.593  52.293  -4.945  0.00  0.00    +0.053 C 
BRANCH  19  20
ATOM     20  CG  PHE A   1      12.102  53.645  -4.528  0.00  0.00    -0.020 A 
ATOM     21  CD2 PHE A   1      12.175  54.029  -3.204  0.00  0.00    -0.004 A 
ATOM     22  CE2 PHE A   1      11.652  55.233  -2.776  0.00  0.00    -0.000 A 
ATOM     23  CZ  PHE A   1      11.039  56.085  -3.678  0.00  0.00    -0.000 A 
ATOM     24  CE1 PHE A   1      10.954  55.731  -5.011  0.00  0.00    -0.000 A 
ATOM     25  CD1 PHE A   1      11.483  54.508  -5.447  0.00  0.00    -0.004 A 
ENDBRANCH  19  20
ENDBRANCH  16  19
ENDBRANCH  12  16
ENDBRANCH  11  13
BRANCH  11  26
ATOM     26  CB  THR A   2       7.029  51.516  -4.220  0.00  0.00    +0.137 C 
ATOM     27  CG2 THR A   2       7.098  50.941  -2.839  0.00  0.00    +0.034 C 
BRANCH  26  28
ATOM     28  OG1 THR A   2       5.763  52.180  -4.334  0.00  0.00    -0.382 OA
ATOM     29  HG1 THR A   2       5.034  51.527  -4.184  0.00  0.00    +0.210 HD
ENDBRANCH  26  28
ENDBRANCH  11  26
ENDBRANCH   7  11
ENDBRANCH   6   9
BRANCH   6  30
ATOM     30  CB  LYS A   3       6.352  57.101  -4.251  0.00  0.00    +0.029 C 
BRANCH  30  31
ATOM     31  CG  LYS A   3       7.519  57.963  -4.694  0.00  0.00    +0.000 C 
BRANCH  31  32
ATOM     32  CD  LYS A   3       7.070  59.101  -5.580  0.00  0.00    -0.024 C 
BRANCH  32  33
ATOM     33  CE  LYS A   3       6.385  58.601  -6.844  0.00  0.00    -0.086 C 
BRANCH  33  34
ATOM     34  NZ  LYS A   3       5.992  59.725  -7.750  0.00  0.00    +0.380 N 
ATOM     35  HZ1 LYS A   3       5.334  60.357  -7.251  0.00  0.00    -0.089 HD
ATOM     36  HZ2 LYS A   3       6.841  60.257  -8.029  0.00  0.00    -0.089 HD
ATOM     37  HZ3 LYS A   3       5.529  59.340  -8.598  0.00  0.00    -0.089 HD
ENDBRANCH  33  34
ENDBRANCH  32  33
ENDBRANCH  31  32
ENDBRANCH  30  31
ENDBRANCH   6  30
ENDBRANCH   2   6
ENDBRANCH   1   4
BRANCH   1  38
ATOM     38  C   GLU A   4       4.548  53.932  -0.193  0.00  0.00    +0.241 C 
ATOM     39  O   GLU A   4       3.921  54.360   0.767  0.00  0.00    -0.273 OA
ATOM     40  N   THR A   5       5.743  53.350  -0.076  0.00  0.00    -0.295 N 
ATOM     41  H   THR A   5       6.257  53.080  -0.939  0.00  0.00    +0.150 HD
BRANCH  40  42
ATOM     42  CA  THR A   5       6.352  53.080   1.222  0.00  0.00    +0.176 C 
BRANCH  42  43
ATOM     43  C   THR A   5       7.693  53.791   1.476  0.00  0.00    +0.243 C 
ATOM     44  O   THR A   5       8.153  53.884   2.605  0.00  0.00    -0.273 OA
ATOM     45  N   TYR A   6       8.293  54.278   0.407  0.00  0.00    -0.297 N 
ATOM     46  H   TYR A   6       7.795  54.230  -0.505  0.00  0.00    +0.150 HD
BRANCH  45  47
ATOM     47  CA  TYR A   6       9.638  54.889   0.441  0.00  0.00    +0.153 C 
BRANCH  47  48
ATOM     48  C   TYR A   6      10.687  53.845   0.864  0.00  0.00    +0.241 C 
ATOM     49  O   TYR A   6      11.829  54.176   1.191  0.00  0.00    -0.273 OA
ATOM     50  N   ASP A   7      10.301  52.571   0.815  0.00  0.00    -0.298 N 
ATOM     51  H   ASP A   7       9.332  52.339   0.517  0.00  0.00    +0.150 HD
BRANCH  50  52
ATOM     52  CA  ASP A   7      11.229  51.488   1.177  0.00  0.00    +0.148 C 
BRANCH  52  53
ATOM     53  C   ASP A   7      12.236  51.281   0.036  0.00  0.00    +0.227 C 
ATOM     54  O   ASP A   7      11.941  51.635  -1.093  0.00  0.00    -0.286 OA
ENDBRANCH  52  53
BRANCH  52  55
ATOM     55  CB  ASP A   7      10.423  50.183   1.427  0.00  0.00    +0.142 C 
BRANCH  55  56
ATOM     56  CG  ASP A   7      11.185  49.171   2.269  0.00  0.00    +0.367 C 
ATOM     57  OD2 ASP A   7      12.284  49.503   2.763  0.00  0.00    -0.246 OA
ATOM     58  OD1 ASP A   7      10.672  48.035   2.435  0.00  0.00    -0.246 OA
ENDBRANCH  55  56
ENDBRANCH  52  55
ENDBRANCH  50  52
ENDBRANCH  47  48
BRANCH  47  59
ATOM     59  CB  TYR A   6       9.664  56.109   1.345  0.00  0.00    +0.055 C 
BRANCH  59  60
ATOM     60  CG  TYR A   6       9.573  57.367   0.481  0.00  0.00    -0.020 A 
ATOM     61  CD2 TYR A   6      10.686  58.190   0.288  0.00  0.00    -0.001 A 
ATOM     62  CE2 TYR A   6      10.632  59.296  -0.569  0.00  0.00    +0.036 A 
ATOM     63  CZ  TYR A   6       9.462  59.578  -1.245  0.00  0.00    +0.134 A 
ATOM     64  CE1 TYR A   6       8.328  58.780  -1.082  0.00  0.00    +0.036 A 
ATOM     65  CD1 TYR A   6       8.387  57.682  -0.209  0.00  0.00    -0.001 A 
BRANCH  63  66
ATOM     66  OH  TYR A   6       9.427  60.673  -2.067  0.00  0.00    -0.506 OA
ATOM     67  HH  TYR A   6       8.530  60.746  -2.480  0.00  0.00    +0.292 HD
ENDBRANCH  63  66
ENDBRANCH  59  60
ENDBRANCH  47  59
ENDBRANCH  45  47
ENDBRANCH  42  43
BRANCH  42  68
ATOM     68  CB  THR A   5       6.662  51.595   1.329  0.00  0.00    +0.137 C 
ATOM     69  CG2 THR A   5       5.390  50.747   1.140  0.00  0.00    +0.034 C 
BRANCH  68  70
ATOM     70  OG1 THR A   5       7.572  51.260   0.288  0.00  0.00    -0.382 OA
ATOM     71  HG1 THR A   5       7.789  50.295   0.338  0.00  0.00    +0.210 HD
ENDBRANCH  68  70
ENDBRANCH  42  68
ENDBRANCH  40  42
ENDBRANCH   1  38
BRANCH   1  72
ATOM     72  CB  GLU A   4       3.354  52.796  -2.077  0.00  0.00    +0.041 C 
BRANCH  72  73
ATOM     73  CG  GLU A   4       2.400  52.233  -1.055  0.00  0.00    +0.116 C 
BRANCH  73  74
ATOM     74  CD  GLU A   4       1.724  50.962  -1.532  0.00  0.00    +0.365 C 
ATOM     75  OE2 GLU A   4       0.480  50.953  -1.609  0.00  0.00    -0.246 OA
ATOM     76  OE1 GLU A   4       2.433  49.976  -1.828  0.00  0.00    -0.246 OA
ENDBRANCH  73  74
ENDBRANCH  72  73
ENDBRANCH   1  72
TORSDOF 33
REMARK  Name = ../refined-set-2016/2xbx/2xbx_pocket.pdb
REMARK  221 active torsions:
REMARK  status: ('A' for Active; 'I' for Inactive)
REMARK    1  A    between atoms: _1  and  _3
REMARK    2  A    between atoms: _3  and  _4
REMARK    3  A    between atoms: _3  and  _6
REMARK    4  A    between atoms: _9  and  _11
REMARK    5  A    between atoms: _11  and  _12
REMARK    6  A    between atoms: _11  and  _14
REMARK    7  A    between atoms: _14  and  _15
REMARK    8  A    between atoms: _20  and  _22
REMARK    9  A    between atoms: _22  and  _23
REMARK   10  A    between atoms: _22  and  _25
REMARK   11  A    between atoms: _25  and  _26
REMARK   12  A    between atoms: _26  and  _27
REMARK   13  A    between atoms: _32  and  _34
REMARK   14  A    between atoms: _34  and  _35
REMARK   15  A    between atoms: _34  and  _37
REMARK   16  A    between atoms: _37  and  _38
REMARK   17  A    between atoms: _44  and  _46
REMARK   18  A    between atoms: _46  and  _47
REMARK   19  A    between atoms: _46  and  _49
REMARK   20  A    between atoms: _49  and  _50
REMARK   21  A    between atoms: _53  and  _55
REMARK   22  A    between atoms: _55  and  _56
REMARK   23  A    between atoms: _55  and  _58
REMARK   24  A    between atoms: _58  and  _59
REMARK   25  A    between atoms: _59  and  _60
REMARK   26  A    between atoms: _60  and  _61
REMARK   27  A    between atoms: _61  and  _62
REMARK   28  A    between atoms: _66  and  _68
REMARK   29  A    between atoms: _68  and  _69
REMARK   30  A    between atoms: _68  and  _71
REMARK   31  A    between atoms: _71  and  _72
REMARK   32  A    between atoms: _72  and  _73
REMARK   33  A    between atoms: _76  and  _78
REMARK   34  A    between atoms: _78  and  _79
REMARK   35  A    between atoms: _78  and  _81
REMARK   36  A    between atoms: _81  and  _82
REMARK   37  A    between atoms: _85  and  _87
REMARK   38  A    between atoms: _87  and  _88
REMARK   39  A    between atoms: _87  and  _90
REMARK   40  A    between atoms: _90  and  _91
REMARK   41  A    between atoms: _96  and  _97
REMARK   42  A    between atoms: _99  and  _101
REMARK   43  A    between atoms: _101  and  _102
REMARK   44  A    between atoms: _101  and  _104
REMARK   45  A    between atoms: _104  and  _105
REMARK   46  A    between atoms: _108  and  _110
REMARK   47  A    between atoms: _110  and  _111
REMARK   48  A    between atoms: _110  and  _113
REMARK   49  A    between atoms: _113  and  _114
REMARK   50  A    between atoms: _117  and  _119
REMARK   51  A    between atoms: _119  and  _120
REMARK   52  A    between atoms: _119  and  _122
REMARK   53  A    between atoms: _125  and  _127
REMARK   54  A    between atoms: _127  and  _128
REMARK   55  A    between atoms: _127  and  _130
REMARK   56  A    between atoms: _130  and  _131
REMARK   57  A    between atoms: _131  and  _132
REMARK   58  A    between atoms: _132  and  _133
REMARK   59  A    between atoms: _142  and  _144
REMARK   60  A    between atoms: _144  and  _145
REMARK   61  A    between atoms: _144  and  _147
REMARK   62  A    between atoms: _147  and  _148
REMARK   63  A    between atoms: _153  and  _155
REMARK   64  A    between atoms: _155  and  _156
REMARK   65  A    between atoms: _155  and  _158
REMARK   66  A    between atoms: _158  and  _159
REMARK   67  A    between atoms: _159  and  _160
REMARK   68  A    between atoms: _163  and  _165
REMARK   69  A    between atoms: _165  and  _166
REMARK   70  A    between atoms: _165  and  _168
REMARK   71  A    between atoms: _168  and  _169
REMARK   72  A    between atoms: _169  and  _170
REMARK   73  A    between atoms: _170  and  _171
REMARK   74  A    between atoms: _171  and  _172
REMARK   75  A    between atoms: _176  and  _178
REMARK   76  A    between atoms: _178  and  _179
REMARK   77  A    between atoms: _181  and  _183
REMARK   78  A    between atoms: _183  and  _184
REMARK   79  A    between atoms: _183  and  _186
REMARK   80  A    between atoms: _189  and  _191
REMARK   81  A    between atoms: _191  and  _192
REMARK   82  A    between atoms: _191  and  _194
REMARK   83  A    between atoms: _194  and  _195
REMARK   84  A    between atoms: _197  and  _199
REMARK   85  A    between atoms: _199  and  _200
REMARK   86  A    between atoms: _199  and  _202
REMARK   87  A    between atoms: _202  and  _203
REMARK   88  A    between atoms: _205  and  _207
REMARK   89  A    between atoms: _207  and  _208
REMARK   90  A    between atoms: _207  and  _210
REMARK   91  A    between atoms: _210  and  _211
REMARK   92  A    between atoms: _217  and  _219
REMARK   93  A    between atoms: _219  and  _220
REMARK   94  A    between atoms: _219  and  _222
REMARK   95  A    between atoms: _222  and  _223
REMARK   96  A    between atoms: _226  and  _228
REMARK   97  A    between atoms: _228  and  _229
REMARK   98  A    between atoms: _228  and  _231
REMARK   99  A    between atoms: _231  and  _232
REMARK  100  A    between atoms: _235  and  _237
REMARK  101  A    between atoms: _237  and  _238
REMARK  102  A    between atoms: _237  and  _240
REMARK  103  A    between atoms: _240  and  _241
REMARK  104  A    between atoms: _244  and  _246
REMARK  105  A    between atoms: _246  and  _247
REMARK  106  A    between atoms: _246  and  _249
REMARK  107  A    between atoms: _249  and  _250
REMARK  108  A    between atoms: _250  and  _251
REMARK  109  A    between atoms: _253  and  _255
REMARK  110  A    between atoms: _255  and  _256
REMARK  111  A    between atoms: _255  and  _258
REMARK  112  A    between atoms: _258  and  _259
REMARK  113  A    between atoms: _265  and  _267
REMARK  114  A    between atoms: _267  and  _268
REMARK  115  A    between atoms: _267  and  _270
REMARK  116  A    between atoms: _272  and  _274
REMARK  117  A    between atoms: _274  and  _275
REMARK  118  A    between atoms: _278  and  _280
REMARK  119  A    between atoms: _280  and  _281
REMARK  120  A    between atoms: _283  and  _285
REMARK  121  A    between atoms: _285  and  _286
REMARK  122  A    between atoms: _285  and  _288
REMARK  123  A    between atoms: _288  and  _289
REMARK  124  A    between atoms: _289  and  _290
REMARK  125  A    between atoms: _293  and  _295
REMARK  126  A    between atoms: _295  and  _296
REMARK  127  A    between atoms: _295  and  _298
REMARK  128  A    between atoms: _298  and  _299
REMARK  129  A    between atoms: _302  and  _304
REMARK  130  A    between atoms: _304  and  _305
REMARK  131  A    between atoms: _308  and  _310
REMARK  132  A    between atoms: _310  and  _311
REMARK  133  A    between atoms: _310  and  _313
REMARK  134  A    between atoms: _313  and  _314
REMARK  135  A    between atoms: _314  and  _437
REMARK  136  A    between atoms: _315  and  _317
REMARK  137  A    between atoms: _317  and  _318
REMARK  138  A    between atoms: _317  and  _320
REMARK  139  A    between atoms: _320  and  _321
REMARK  140  A    between atoms: _321  and  _322
REMARK  141  A    between atoms: _327  and  _329
REMARK  142  A    between atoms: _329  and  _330
REMARK  143  A    between atoms: _332  and  _334
REMARK  144  A    between atoms: _334  and  _335
REMARK  145  A    between atoms: _334  and  _337
REMARK  146  A    between atoms: _337  and  _338
REMARK  147  A    between atoms: _341  and  _343
REMARK  148  A    between atoms: _343  and  _344
REMARK  149  A    between atoms: _343  and  _346
REMARK  150  A    between atoms: _346  and  _347
REMARK  151  A    between atoms: _349  and  _351
REMARK  152  A    between atoms: _351  and  _352
REMARK  153  A    between atoms: _354  and  _356
REMARK  154  A    between atoms: _356  and  _357
REMARK  155  A    between atoms: _359  and  _361
REMARK  156  A    between atoms: _361  and  _362
REMARK  157  A    between atoms: _361  and  _364
REMARK  158  A    between atoms: _364  and  _365
REMARK  159  A    between atoms: _370  and  _372
REMARK  160  A    between atoms: _372  and  _373
REMARK  161  A    between atoms: _372  and  _375
REMARK  162  A    between atoms: _375  and  _376
REMARK  163  A    between atoms: _379  and  _381
REMARK  164  A    between atoms: _381  and  _382
REMARK  165  A    between atoms: _381  and  _384
REMARK  166  A    between atoms: _387  and  _389
REMARK  167  A    between atoms: _389  and  _390
REMARK  168  A    between atoms: _389  and  _392
REMARK  169  A    between atoms: _392  and  _393
REMARK  170  A    between atoms: _395  and  _397
REMARK  171  A    between atoms: _397  and  _398
REMARK  172  A    between atoms: _397  and  _400
REMARK  173  A    between atoms: _400  and  _401
REMARK  174  A    between atoms: _411  and  _413
REMARK  175  A    between atoms: _413  and  _414
REMARK  176  A    between atoms: _416  and  _418
REMARK  177  A    between atoms: _418  and  _419
REMARK  178  A    between atoms: _418  and  _421
REMARK  179  A    between atoms: _421  and  _422
REMARK  180  A    between atoms: _422  and  _423
REMARK  181  A    between atoms: _426  and  _428
REMARK  182  A    between atoms: _428  and  _429
REMARK  183  A    between atoms: _431  and  _433
REMARK  184  A    between atoms: _433  and  _434
REMARK  185  A    between atoms: _433  and  _436
REMARK  186  A    between atoms: _436  and  _437
REMARK  187  A    between atoms: _438  and  _440
REMARK  188  A    between atoms: _440  and  _441
REMARK  189  A    between atoms: _444  and  _446
REMARK  190  A    between atoms: _446  and  _447
REMARK  191  A    between atoms: _446  and  _449
REMARK  192  A    between atoms: _449  and  _450
REMARK  193  A    between atoms: _450  and  _451
REMARK  194  A    between atoms: _451  and  _452
REMARK  195  A    between atoms: _461  and  _463
REMARK  196  A    between atoms: _463  and  _464
REMARK  197  A    between atoms: _463  and  _466
REMARK  198  A    between atoms: _466  and  _467
REMARK  199  A    between atoms: _467  and  _468
REMARK  200  A    between atoms: _468  and  _469
REMARK  201  A    between atoms: _469  and  _470
REMARK  202  A    between atoms: _474  and  _476
REMARK  203  A    between atoms: _476  and  _477
REMARK  204  A    between atoms: _476  and  _479
REMARK  205  A    between atoms: _479  and  _480
REMARK  206  A    between atoms: _485  and  _486
REMARK  207  A    between atoms: _488  and  _490
REMARK  208  A    between atoms: _490  and  _491
REMARK  209  A    between atoms: _493  and  _495
REMARK  210  A    between atoms: _495  and  _496
REMARK  211  A    between atoms: _495  and  _498
REMARK  212  A    between atoms: _498  and  _499
REMARK  213  A    between atoms: _502  and  _504
REMARK  214  A    between atoms: _504  and  _505
REMARK  215  A    between atoms: _504  and  _507
REMARK  216  A    between atoms: _507  and  _508
REMARK  217  A    between atoms: _513  and  _514
REMARK  218  A    between atoms: _516  and  _518
REMARK  219  A    between atoms: _518  and  _519
REMARK  220  A    between atoms: _518  and  _521
REMARK  221  A    between atoms: _521  and  _522
REMARK                            x       y       z     vdW  Elec       q    Type
REMARK                         _______ _______ _______ _____ _____    ______ ____
ROOT
ATOM      1  CA  ASP A   1      15.274  54.141  -1.220  0.00  0.00    +0.144 C 
ENDROOT
BRANCH   1   2
ATOM      2  N   ASP A   1      14.994  52.830  -0.630  0.00  0.00    -0.239 NA
ATOM      3  H   ASP A   1      14.912  52.742   0.403  0.00  0.00    +0.142 HD
ENDBRANCH   1   2
BRANCH   1   4
ATOM      4  C   ASP A   1      16.782  54.317  -1.472  0.00  0.00    +0.225 C 
ATOM      5  O   ASP A   1      17.489  55.016  -0.746  0.00  0.00    -0.287 OA
ENDBRANCH   1   4
BRANCH   1   6
ATOM      6  CB  ASP A   1      14.717  55.230  -0.316  0.00  0.00    +0.139 C 
BRANCH   6   7
ATOM      7  CG  ASP A   1      14.656  56.601  -1.021  0.00  0.00    +0.367 C 
ATOM      8  OD2 ASP A   1      14.502  57.637  -0.343  0.00  0.00    -0.246 OA
ATOM      9  OD1 ASP A   1      14.765  56.609  -2.259  0.00  0.00    -0.246 OA
ENDBRANCH   6   7
ENDBRANCH   1   6
TORSDOF 4
REMARK  Name = ../refined-set-2016/2xbx/2xbx_pocket.pdb
REMARK  221 active torsions:
REMARK  status: ('A' for Active; 'I' for Inactive)
REMARK    1  A    between atoms: _1  and  _3
REMARK    2  A    between atoms: _3  and  _4
REMARK    3  A    between atoms: _3  and  _6
REMARK    4  A    between atoms: _9  and  _11
REMARK    5  A    between atoms: _11  and  _12
REMARK    6  A    between atoms: _11  and  _14
REMARK    7  A    between atoms: _14  and  _15
REMARK    8  A    between atoms: _20  and  _22
REMARK    9  A    between atoms: _22  and  _23
REMARK   10  A    between atoms: _22  and  _25
REMARK   11  A    between atoms: _25  and  _26
REMARK   12  A    between atoms: _26  and  _27
REMARK   13  A    between atoms: _32  and  _34
REMARK   14  A    between atoms: _34  and  _35
REMARK   15  A    between atoms: _34  and  _37
REMARK   16  A    between atoms: _37  and  _38
REMARK   17  A    between atoms: _44  and  _46
REMARK   18  A    between atoms: _46  and  _47
REMARK   19  A    between atoms: _46  and  _49
REMARK   20  A    between atoms: _49  and  _50
REMARK   21  A    between atoms: _53  and  _55
REMARK   22  A    between atoms: _55  and  _56
REMARK   23  A    between atoms: _55  and  _58
REMARK   24  A    between atoms: _58  and  _59
REMARK   25  A    between atoms: _59  and  _60
REMARK   26  A    between atoms: _60  and  _61
REMARK   27  A    between atoms: _61  and  _62
REMARK   28  A    between atoms: _66  and  _68
REMARK   29  A    between atoms: _68  and  _69
REMARK   30  A    between atoms: _68  and  _71
REMARK   31  A    between atoms: _71  and  _72
REMARK   32  A    between atoms: _72  and  _73
REMARK   33  A    between atoms: _76  and  _78
REMARK   34  A    between atoms: _78  and  _79
REMARK   35  A    between atoms: _78  and  _81
REMARK   36  A    between atoms: _81  and  _82
REMARK   37  A    between atoms: _85  and  _87
REMARK   38  A    between atoms: _87  and  _88
REMARK   39  A    between atoms: _87  and  _90
REMARK   40  A    between atoms: _90  and  _91
REMARK   41  A    between atoms: _96  and  _97
REMARK   42  A    between atoms: _99  and  _101
REMARK   43  A    between atoms: _101  and  _102
REMARK   44  A    between atoms: _101  and  _104
REMARK   45  A    between atoms: _104  and  _105
REMARK   46  A    between atoms: _108  and  _110
REMARK   47  A    between atoms: _110  and  _111
REMARK   48  A    between atoms: _110  and  _113
REMARK   49  A    between atoms: _113  and  _114
REMARK   50  A    between atoms: _117  and  _119
REMARK   51  A    between atoms: _119  and  _120
REMARK   52  A    between atoms: _119  and  _122
REMARK   53  A    between atoms: _125  and  _127
REMARK   54  A    between atoms: _127  and  _128
REMARK   55  A    between atoms: _127  and  _130
REMARK   56  A    between atoms: _130  and  _131
REMARK   57  A    between atoms: _131  and  _132
REMARK   58  A    between atoms: _132  and  _133
REMARK   59  A    between atoms: _142  and  _144
REMARK   60  A    between atoms: _144  and  _145
REMARK   61  A    between atoms: _144  and  _147
REMARK   62  A    between atoms: _147  and  _148
REMARK   63  A    between atoms: _153  and  _155
REMARK   64  A    between atoms: _155  and  _156
REMARK   65  A    between atoms: _155  and  _158
REMARK   66  A    between atoms: _158  and  _159
REMARK   67  A    between atoms: _159  and  _160
REMARK   68  A    between atoms: _163  and  _165
REMARK   69  A    between atoms: _165  and  _166
REMARK   70  A    between atoms: _165  and  _168
REMARK   71  A    between atoms: _168  and  _169
REMARK   72  A    between atoms: _169  and  _170
REMARK   73  A    between atoms: _170  and  _171
REMARK   74  A    between atoms: _171  and  _172
REMARK   75  A    between atoms: _176  and  _178
REMARK   76  A    between atoms: _178  and  _179
REMARK   77  A    between atoms: _181  and  _183
REMARK   78  A    between atoms: _183  and  _184
REMARK   79  A    between atoms: _183  and  _186
REMARK   80  A    between atoms: _189  and  _191
REMARK   81  A    between atoms: _191  and  _192
REMARK   82  A    between atoms: _191  and  _194
REMARK   83  A    between atoms: _194  and  _195
REMARK   84  A    between atoms: _197  and  _199
REMARK   85  A    between atoms: _199  and  _200
REMARK   86  A    between atoms: _199  and  _202
REMARK   87  A    between atoms: _202  and  _203
REMARK   88  A    between atoms: _205  and  _207
REMARK   89  A    between atoms: _207  and  _208
REMARK   90  A    between atoms: _207  and  _210
REMARK   91  A    between atoms: _210  and  _211
REMARK   92  A    between atoms: _217  and  _219
REMARK   93  A    between atoms: _219  and  _220
REMARK   94  A    between atoms: _219  and  _222
REMARK   95  A    between atoms: _222  and  _223
REMARK   96  A    between atoms: _226  and  _228
REMARK   97  A    between atoms: _228  and  _229
REMARK   98  A    between atoms: _228  and  _231
REMARK   99  A    between atoms: _231  and  _232
REMARK  100  A    between atoms: _235  and  _237
REMARK  101  A    between atoms: _237  and  _238
REMARK  102  A    between atoms: _237  and  _240
REMARK  103  A    between atoms: _240  and  _241
REMARK  104  A    between atoms: _244  and  _246
REMARK  105  A    between atoms: _246  and  _247
REMARK  106  A    between atoms: _246  and  _249
REMARK  107  A    between atoms: _249  and  _250
REMARK  108  A    between atoms: _250  and  _251
REMARK  109  A    between atoms: _253  and  _255
REMARK  110  A    between atoms: _255  and  _256
REMARK  111  A    between atoms: _255  and  _258
REMARK  112  A    between atoms: _258  and  _259
REMARK  113  A    between atoms: _265  and  _267
REMARK  114  A    between atoms: _267  and  _268
REMARK  115  A    between atoms: _267  and  _270
REMARK  116  A    between atoms: _272  and  _274
REMARK  117  A    between atoms: _274  and  _275
REMARK  118  A    between atoms: _278  and  _280
REMARK  119  A    between atoms: _280  and  _281
REMARK  120  A    between atoms: _283  and  _285
REMARK  121  A    between atoms: _285  and  _286
REMARK  122  A    between atoms: _285  and  _288
REMARK  123  A    between atoms: _288  and  _289
REMARK  124  A    between atoms: _289  and  _290
REMARK  125  A    between atoms: _293  and  _295
REMARK  126  A    between atoms: _295  and  _296
REMARK  127  A    between atoms: _295  and  _298
REMARK  128  A    between atoms: _298  and  _299
REMARK  129  A    between atoms: _302  and  _304
REMARK  130  A    between atoms: _304  and  _305
REMARK  131  A    between atoms: _308  and  _310
REMARK  132  A    between atoms: _310  and  _311
REMARK  133  A    between atoms: _310  and  _313
REMARK  134  A    between atoms: _313  and  _314
REMARK  135  A    between atoms: _314  and  _437
REMARK  136  A    between atoms: _315  and  _317
REMARK  137  A    between atoms: _317  and  _318
REMARK  138  A    between atoms: _317  and  _320
REMARK  139  A    between atoms: _320  and  _321
REMARK  140  A    between atoms: _321  and  _322
REMARK  141  A    between atoms: _327  and  _329
REMARK  142  A    between atoms: _329  and  _330
REMARK  143  A    between atoms: _332  and  _334
REMARK  144  A    between atoms: _334  and  _335
REMARK  145  A    between atoms: _334  and  _337
REMARK  146  A    between atoms: _337  and  _338
REMARK  147  A    between atoms: _341  and  _343
REMARK  148  A    between atoms: _343  and  _344
REMARK  149  A    between atoms: _343  and  _346
REMARK  150  A    between atoms: _346  and  _347
REMARK  151  A    between atoms: _349  and  _351
REMARK  152  A    between atoms: _351  and  _352
REMARK  153  A    between atoms: _354  and  _356
REMARK  154  A    between atoms: _356  and  _357
REMARK  155  A    between atoms: _359  and  _361
REMARK  156  A    between atoms: _361  and  _362
REMARK  157  A    between atoms: _361  and  _364
REMARK  158  A    between atoms: _364  and  _365
REMARK  159  A    between atoms: _370  and  _372
REMARK  160  A    between atoms: _372  and  _373
REMARK  161  A    between atoms: _372  and  _375
REMARK  162  A    between atoms: _375  and  _376
REMARK  163  A    between atoms: _379  and  _381
REMARK  164  A    between atoms: _381  and  _382
REMARK  165  A    between atoms: _381  and  _384
REMARK  166  A    between atoms: _387  and  _389
REMARK  167  A    between atoms: _389  and  _390
REMARK  168  A    between atoms: _389  and  _392
REMARK  169  A    between atoms: _392  and  _393
REMARK  170  A    between atoms: _395  and  _397
REMARK  171  A    between atoms: _397  and  _398
REMARK  172  A    between atoms: _397  and  _400
REMARK  173  A    between atoms: _400  and  _401
REMARK  174  A    between atoms: _411  and  _413
REMARK  175  A    between atoms: _413  and  _414
REMARK  176  A    between atoms: _416  and  _418
REMARK  177  A    between atoms: _418  and  _419
REMARK  178  A    between atoms: _418  and  _421
REMARK  179  A    between atoms: _421  and  _422
REMARK  180  A    between atoms: _422  and  _423
REMARK  181  A    between atoms: _426  and  _428
REMARK  182  A    between atoms: _428  and  _429
REMARK  183  A    between atoms: _431  and  _433
REMARK  184  A    between atoms: _433  and  _434
REMARK  185  A    between atoms: _433  and  _436
REMARK  186  A    between atoms: _436  and  _437
REMARK  187  A    between atoms: _438  and  _440
REMARK  188  A    between atoms: _440  and  _441
REMARK  189  A    between atoms: _444  and  _446
REMARK  190  A    between atoms: _446  and  _447
REMARK  191  A    between atoms: _446  and  _449
REMARK  192  A    between atoms: _449  and  _450
REMARK  193  A    between atoms: _450  and  _451
REMARK  194  A    between atoms: _451  and  _452
REMARK  195  A    between atoms: _461  and  _463
REMARK  196  A    between atoms: _463  and  _464
REMARK  197  A    between atoms: _463  and  _466
REMARK  198  A    between atoms: _466  and  _467
REMARK  199  A    between atoms: _467  and  _468
REMARK  200  A    between atoms: _468  and  _469
REMARK  201  A    between atoms: _469  and  _470
REMARK  202  A    between atoms: _474  and  _476
REMARK  203  A    between atoms: _476  and  _477
REMARK  204  A    between atoms: _476  and  _479
REMARK  205  A    between atoms: _479  and  _480
REMARK  206  A    between atoms: _485  and  _486
REMARK  207  A    between atoms: _488  and  _490
REMARK  208  A    between atoms: _490  and  _491
REMARK  209  A    between atoms: _493  and  _495
REMARK  210  A    between atoms: _495  and  _496
REMARK  211  A    between atoms: _495  and  _498
REMARK  212  A    between atoms: _498  and  _499
REMARK  213  A    between atoms: _502  and  _504
REMARK  214  A    between atoms: _504  and  _505
REMARK  215  A    between atoms: _504  and  _507
REMARK  216  A    between atoms: _507  and  _508
REMARK  217  A    between atoms: _513  and  _514
REMARK  218  A    between atoms: _516  and  _518
REMARK  219  A    between atoms: _518  and  _519
REMARK  220  A    between atoms: _518  and  _521
REMARK  221  A    between atoms: _521  and  _522
REMARK                            x       y       z     vdW  Elec       q    Type
REMARK                         _______ _______ _______ _____ _____    ______ ____
ROOT
ATOM      1  CA  VAL A   1      24.588  64.172   7.806  0.00  0.00    +0.133 C 
ENDROOT
BRANCH   1   2
ATOM      2  CB  VAL A   1      23.027  64.107   8.053  0.00  0.00    +0.023 C 
ATOM      3  CG2 VAL A   1      22.572  65.204   8.975  0.00  0.00    +0.002 C 
ATOM      4  CG1 VAL A   1      22.278  64.206   6.728  0.00  0.00    +0.002 C 
ENDBRANCH   1   2
BRANCH   1   5
ATOM      5  N   VAL A   1      25.343  64.014   9.057  0.00  0.00    -0.239 NA
ATOM      6  H   VAL A   1      25.161  64.664   9.848  0.00  0.00    +0.142 HD
ENDBRANCH   1   5
BRANCH   1   7
ATOM      7  C   VAL A   1      24.996  65.519   7.199  0.00  0.00    +0.224 C 
ATOM      8  O   VAL A   1      25.328  66.471   7.917  0.00  0.00    -0.287 OA
ENDBRANCH   1   7
TORSDOF 3
REMARK  Name = ../refined-set-2016/2xbx/2xbx_pocket.pdb
REMARK  221 active torsions:
REMARK  status: ('A' for Active; 'I' for Inactive)
REMARK    1  A    between atoms: _1  and  _3
REMARK    2  A    between atoms: _3  and  _4
REMARK    3  A    between atoms: _3  and  _6
REMARK    4  A    between atoms: _9  and  _11
REMARK    5  A    between atoms: _11  and  _12
REMARK    6  A    between atoms: _11  and  _14
REMARK    7  A    between atoms: _14  and  _15
REMARK    8  A    between atoms: _20  and  _22
REMARK    9  A    between atoms: _22  and  _23
REMARK   10  A    between atoms: _22  and  _25
REMARK   11  A    between atoms: _25  and  _26
REMARK   12  A    between atoms: _26  and  _27
REMARK   13  A    between atoms: _32  and  _34
REMARK   14  A    between atoms: _34  and  _35
REMARK   15  A    between atoms: _34  and  _37
REMARK   16  A    between atoms: _37  and  _38
REMARK   17  A    between atoms: _44  and  _46
REMARK   18  A    between atoms: _46  and  _47
REMARK   19  A    between atoms: _46  and  _49
REMARK   20  A    between atoms: _49  and  _50
REMARK   21  A    between atoms: _53  and  _55
REMARK   22  A    between atoms: _55  and  _56
REMARK   23  A    between atoms: _55  and  _58
REMARK   24  A    between atoms: _58  and  _59
REMARK   25  A    between atoms: _59  and  _60
REMARK   26  A    between atoms: _60  and  _61
REMARK   27  A    between atoms: _61  and  _62
REMARK   28  A    between atoms: _66  and  _68
REMARK   29  A    between atoms: _68  and  _69
REMARK   30  A    between atoms: _68  and  _71
REMARK   31  A    between atoms: _71  and  _72
REMARK   32  A    between atoms: _72  and  _73
REMARK   33  A    between atoms: _76  and  _78
REMARK   34  A    between atoms: _78  and  _79
REMARK   35  A    between atoms: _78  and  _81
REMARK   36  A    between atoms: _81  and  _82
REMARK   37  A    between atoms: _85  and  _87
REMARK   38  A    between atoms: _87  and  _88
REMARK   39  A    between atoms: _87  and  _90
REMARK   40  A    between atoms: _90  and  _91
REMARK   41  A    between atoms: _96  and  _97
REMARK   42  A    between atoms: _99  and  _101
REMARK   43  A    between atoms: _101  and  _102
REMARK   44  A    between atoms: _101  and  _104
REMARK   45  A    between atoms: _104  and  _105
REMARK   46  A    between atoms: _108  and  _110
REMARK   47  A    between atoms: _110  and  _111
REMARK   48  A    between atoms: _110  and  _113
REMARK   49  A    between atoms: _113  and  _114
REMARK   50  A    between atoms: _117  and  _119
REMARK   51  A    between atoms: _119  and  _120
REMARK   52  A    between atoms: _119  and  _122
REMARK   53  A    between atoms: _125  and  _127
REMARK   54  A    between atoms: _127  and  _128
REMARK   55  A    between atoms: _127  and  _130
REMARK   56  A    between atoms: _130  and  _131
REMARK   57  A    between atoms: _131  and  _132
REMARK   58  A    between atoms: _132  and  _133
REMARK   59  A    between atoms: _142  and  _144
REMARK   60  A    between atoms: _144  and  _145
REMARK   61  A    between atoms: _144  and  _147
REMARK   62  A    between atoms: _147  and  _148
REMARK   63  A    between atoms: _153  and  _155
REMARK   64  A    between atoms: _155  and  _156
REMARK   65  A    between atoms: _155  and  _158
REMARK   66  A    between atoms: _158  and  _159
REMARK   67  A    between atoms: _159  and  _160
REMARK   68  A    between atoms: _163  and  _165
REMARK   69  A    between atoms: _165  and  _166
REMARK   70  A    between atoms: _165  and  _168
REMARK   71  A    between atoms: _168  and  _169
REMARK   72  A    between atoms: _169  and  _170
REMARK   73  A    between atoms: _170  and  _171
REMARK   74  A    between atoms: _171  and  _172
REMARK   75  A    between atoms: _176  and  _178
REMARK   76  A    between atoms: _178  and  _179
REMARK   77  A    between atoms: _181  and  _183
REMARK   78  A    between atoms: _183  and  _184
REMARK   79  A    between atoms: _183  and  _186
REMARK   80  A    between atoms: _189  and  _191
REMARK   81  A    between atoms: _191  and  _192
REMARK   82  A    between atoms: _191  and  _194
REMARK   83  A    between atoms: _194  and  _195
REMARK   84  A    between atoms: _197  and  _199
REMARK   85  A    between atoms: _199  and  _200
REMARK   86  A    between atoms: _199  and  _202
REMARK   87  A    between atoms: _202  and  _203
REMARK   88  A    between atoms: _205  and  _207
REMARK   89  A    between atoms: _207  and  _208
REMARK   90  A    between atoms: _207  and  _210
REMARK   91  A    between atoms: _210  and  _211
REMARK   92  A    between atoms: _217  and  _219
REMARK   93  A    between atoms: _219  and  _220
REMARK   94  A    between atoms: _219  and  _222
REMARK   95  A    between atoms: _222  and  _223
REMARK   96  A    between atoms: _226  and  _228
REMARK   97  A    between atoms: _228  and  _229
REMARK   98  A    between atoms: _228  and  _231
REMARK   99  A    between atoms: _231  and  _232
REMARK  100  A    between atoms: _235  and  _237
REMARK  101  A    between atoms: _237  and  _238
REMARK  102  A    between atoms: _237  and  _240
REMARK  103  A    between atoms: _240  and  _241
REMARK  104  A    between atoms: _244  and  _246
REMARK  105  A    between atoms: _246  and  _247
REMARK  106  A    between atoms: _246  and  _249
REMARK  107  A    between atoms: _249  and  _250
REMARK  108  A    between atoms: _250  and  _251
REMARK  109  A    between atoms: _253  and  _255
REMARK  110  A    between atoms: _255  and  _256
REMARK  111  A    between atoms: _255  and  _258
REMARK  112  A    between atoms: _258  and  _259
REMARK  113  A    between atoms: _265  and  _267
REMARK  114  A    between atoms: _267  and  _268
REMARK  115  A    between atoms: _267  and  _270
REMARK  116  A    between atoms: _272  and  _274
REMARK  117  A    between atoms: _274  and  _275
REMARK  118  A    between atoms: _278  and  _280
REMARK  119  A    between atoms: _280  and  _281
REMARK  120  A    between atoms: _283  and  _285
REMARK  121  A    between atoms: _285  and  _286
REMARK  122  A    between atoms: _285  and  _288
REMARK  123  A    between atoms: _288  and  _289
REMARK  124  A    between atoms: _289  and  _290
REMARK  125  A    between atoms: _293  and  _295
REMARK  126  A    between atoms: _295  and  _296
REMARK  127  A    between atoms: _295  and  _298
REMARK  128  A    between atoms: _298  and  _299
REMARK  129  A    between atoms: _302  and  _304
REMARK  130  A    between atoms: _304  and  _305
REMARK  131  A    between atoms: _308  and  _310
REMARK  132  A    between atoms: _310  and  _311
REMARK  133  A    between atoms: _310  and  _313
REMARK  134  A    between atoms: _313  and  _314
REMARK  135  A    between atoms: _314  and  _437
REMARK  136  A    between atoms: _315  and  _317
REMARK  137  A    between atoms: _317  and  _318
REMARK  138  A    between atoms: _317  and  _320
REMARK  139  A    between atoms: _320  and  _321
REMARK  140  A    between atoms: _321  and  _322
REMARK  141  A    between atoms: _327  and  _329
REMARK  142  A    between atoms: _329  and  _330
REMARK  143  A    between atoms: _332  and  _334
REMARK  144  A    between atoms: _334  and  _335
REMARK  145  A    between atoms: _334  and  _337
REMARK  146  A    between atoms: _337  and  _338
REMARK  147  A    between atoms: _341  and  _343
REMARK  148  A    between atoms: _343  and  _344
REMARK  149  A    between atoms: _343  and  _346
REMARK  150  A    between atoms: _346  and  _347
REMARK  151  A    between atoms: _349  and  _351
REMARK  152  A    between atoms: _351  and  _352
REMARK  153  A    between atoms: _354  and  _356
REMARK  154  A    between atoms: _356  and  _357
REMARK  155  A    between atoms: _359  and  _361
REMARK  156  A    between atoms: _361  and  _362
REMARK  157  A    between atoms: _361  and  _364
REMARK  158  A    between atoms: _364  and  _365
REMARK  159  A    between atoms: _370  and  _372
REMARK  160  A    between atoms: _372  and  _373
REMARK  161  A    between atoms: _372  and  _375
REMARK  162  A    between atoms: _375  and  _376
REMARK  163  A    between atoms: _379  and  _381
REMARK  164  A    between atoms: _381  and  _382
REMARK  165  A    between atoms: _381  and  _384
REMARK  166  A    between atoms: _387  and  _389
REMARK  167  A    between atoms: _389  and  _390
REMARK  168  A    between atoms: _389  and  _392
REMARK  169  A    between atoms: _392  and  _393
REMARK  170  A    between atoms: _395  and  _397
REMARK  171  A    between atoms: _397  and  _398
REMARK  172  A    between atoms: _397  and  _400
REMARK  173  A    between atoms: _400  and  _401
REMARK  174  A    between atoms: _411  and  _413
REMARK  175  A    between atoms: _413  and  _414
REMARK  176  A    between atoms: _416  and  _418
REMARK  177  A    between atoms: _418  and  _419
REMARK  178  A    between atoms: _418  and  _421
REMARK  179  A    between atoms: _421  and  _422
REMARK  180  A    between atoms: _422  and  _423
REMARK  181  A    between atoms: _426  and  _428
REMARK  182  A    between atoms: _428  and  _429
REMARK  183  A    between atoms: _431  and  _433
REMARK  184  A    between atoms: _433  and  _434
REMARK  185  A    between atoms: _433  and  _436
REMARK  186  A    between atoms: _436  and  _437
REMARK  187  A    between atoms: _438  and  _440
REMARK  188  A    between atoms: _440  and  _441
REMARK  189  A    between atoms: _444  and  _446
REMARK  190  A    between atoms: _446  and  _447
REMARK  191  A    between atoms: _446  and  _449
REMARK  192  A    between atoms: _449  and  _450
REMARK  193  A    between atoms: _450  and  _451
REMARK  194  A    between atoms: _451  and  _452
REMARK  195  A    between atoms: _461  and  _463
REMARK  196  A    between atoms: _463  and  _464
REMARK  197  A    between atoms: _463  and  _466
REMARK  198  A    between atoms: _466  and  _467
REMARK  199  A    between atoms: _467  and  _468
REMARK  200  A    between atoms: _468  and  _469
REMARK  201  A    between atoms: _469  and  _470
REMARK  202  A    between atoms: _474  and  _476
REMARK  203  A    between atoms: _476  and  _477
REMARK  204  A    between atoms: _476  and  _479
REMARK  205  A    between atoms: _479  and  _480
REMARK  206  A    between atoms: _485  and  _486
REMARK  207  A    between atoms: _488  and  _490
REMARK  208  A    between atoms: _490  and  _491
REMARK  209  A    between atoms: _493  and  _495
REMARK  210  A    between atoms: _495  and  _496
REMARK  211  A    between atoms: _495  and  _498
REMARK  212  A    between atoms: _498  and  _499
REMARK  213  A    between atoms: _502  and  _504
REMARK  214  A    between atoms: _504  and  _505
REMARK  215  A    between atoms: _504  and  _507
REMARK  216  A    between atoms: _507  and  _508
REMARK  217  A    between atoms: _513  and  _514
REMARK  218  A    between atoms: _516  and  _518
REMARK  219  A    between atoms: _518  and  _519
REMARK  220  A    between atoms: _518  and  _521
REMARK  221  A    between atoms: _521  and  _522
REMARK                            x       y       z     vdW  Elec       q    Type
REMARK                         _______ _______ _______ _____ _____    ______ ____
ROOT
ATOM      1  NE  ARG A   1      12.404  73.379   0.507  0.00  0.00    -0.265 N 
ATOM      2  CZ  ARG A   1      11.128  73.582   0.208  0.00  0.00    +0.342 C 
ATOM      3  NH2 ARG A   1      10.279  73.972   1.160  0.00  0.00    -0.292 N 
ATOM      4 HH21 ARG A   1      10.618  74.116   2.132  0.00  0.00    +0.255 HD
ATOM      5 HH22 ARG A   1       9.278  74.132   0.930  0.00  0.00    +0.255 HD
ATOM      6  NH1 ARG A   1      10.698  73.378  -1.035  0.00  0.00    -0.292 N 
ATOM      7 HH11 ARG A   1       9.698  73.537  -1.272  0.00  0.00    +0.255 HD
ATOM      8 HH12 ARG A   1      11.362  73.060  -1.769  0.00  0.00    +0.255 HD
ATOM      9  HE  ARG A   1      13.042  73.077  -0.257  0.00  0.00    +0.259 HD
ENDROOT
BRANCH   1  10
ATOM     10  CD  ARG A   1      12.969  73.553   1.842  0.00  0.00    +0.174 C 
BRANCH  10  11
ATOM     11  CG  ARG A   1      14.482  73.678   1.779  0.00  0.00    +0.045 C 
BRANCH  11  12
ATOM     12  CB  ARG A   1      15.120  73.585   3.140  0.00  0.00    +0.029 C 
BRANCH  12  13
ATOM     13  CA  ARG A   1      16.639  73.783   3.124  0.00  0.00    +0.133 C 
BRANCH  13  14
ATOM     14  N   ARG A   1      17.282  72.680   2.418  0.00  0.00    -0.239 NA
ATOM     15  H   ARG A   1      16.695  71.921   2.017  0.00  0.00    +0.142 HD
ENDBRANCH  13  14
BRANCH  13  16
ATOM     16  C   ARG A   1      17.152  73.943   4.540  0.00  0.00    +0.224 C 
ATOM     17  O   ARG A   1      17.443  72.956   5.230  0.00  0.00    -0.287 OA
ENDBRANCH  13  16
ENDBRANCH  12  13
ENDBRANCH  11  12
ENDBRANCH  10  11
ENDBRANCH   1  10
TORSDOF 6
REMARK  Name = ../refined-set-2016/2xbx/2xbx_pocket.pdb
REMARK  221 active torsions:
REMARK  status: ('A' for Active; 'I' for Inactive)
REMARK    1  A    between atoms: _1  and  _3
REMARK    2  A    between atoms: _3  and  _4
REMARK    3  A    between atoms: _3  and  _6
REMARK    4  A    between atoms: _9  and  _11
REMARK    5  A    between atoms: _11  and  _12
REMARK    6  A    between atoms: _11  and  _14
REMARK    7  A    between atoms: _14  and  _15
REMARK    8  A    between atoms: _20  and  _22
REMARK    9  A    between atoms: _22  and  _23
REMARK   10  A    between atoms: _22  and  _25
REMARK   11  A    between atoms: _25  and  _26
REMARK   12  A    between atoms: _26  and  _27
REMARK   13  A    between atoms: _32  and  _34
REMARK   14  A    between atoms: _34  and  _35
REMARK   15  A    between atoms: _34  and  _37
REMARK   16  A    between atoms: _37  and  _38
REMARK   17  A    between atoms: _44  and  _46
REMARK   18  A    between atoms: _46  and  _47
REMARK   19  A    between atoms: _46  and  _49
REMARK   20  A    between atoms: _49  and  _50
REMARK   21  A    between atoms: _53  and  _55
REMARK   22  A    between atoms: _55  and  _56
REMARK   23  A    between atoms: _55  and  _58
REMARK   24  A    between atoms: _58  and  _59
REMARK   25  A    between atoms: _59  and  _60
REMARK   26  A    between atoms: _60  and  _61
REMARK   27  A    between atoms: _61  and  _62
REMARK   28  A    between atoms: _66  and  _68
REMARK   29  A    between atoms: _68  and  _69
REMARK   30  A    between atoms: _68  and  _71
REMARK   31  A    between atoms: _71  and  _72
REMARK   32  A    between atoms: _72  and  _73
REMARK   33  A    between atoms: _76  and  _78
REMARK   34  A    between atoms: _78  and  _79
REMARK   35  A    between atoms: _78  and  _81
REMARK   36  A    between atoms: _81  and  _82
REMARK   37  A    between atoms: _85  and  _87
REMARK   38  A    between atoms: _87  and  _88
REMARK   39  A    between atoms: _87  and  _90
REMARK   40  A    between atoms: _90  and  _91
REMARK   41  A    between atoms: _96  and  _97
REMARK   42  A    between atoms: _99  and  _101
REMARK   43  A    between atoms: _101  and  _102
REMARK   44  A    between atoms: _101  and  _104
REMARK   45  A    between atoms: _104  and  _105
REMARK   46  A    between atoms: _108  and  _110
REMARK   47  A    between atoms: _110  and  _111
REMARK   48  A    between atoms: _110  and  _113
REMARK   49  A    between atoms: _113  and  _114
REMARK   50  A    between atoms: _117  and  _119
REMARK   51  A    between atoms: _119  and  _120
REMARK   52  A    between atoms: _119  and  _122
REMARK   53  A    between atoms: _125  and  _127
REMARK   54  A    between atoms: _127  and  _128
REMARK   55  A    between atoms: _127  and  _130
REMARK   56  A    between atoms: _130  and  _131
REMARK   57  A    between atoms: _131  and  _132
REMARK   58  A    between atoms: _132  and  _133
REMARK   59  A    between atoms: _142  and  _144
REMARK   60  A    between atoms: _144  and  _145
REMARK   61  A    between atoms: _144  and  _147
REMARK   62  A    between atoms: _147  and  _148
REMARK   63  A    between atoms: _153  and  _155
REMARK   64  A    between atoms: _155  and  _156
REMARK   65  A    between atoms: _155  and  _158
REMARK   66  A    between atoms: _158  and  _159
REMARK   67  A    between atoms: _159  and  _160
REMARK   68  A    between atoms: _163  and  _165
REMARK   69  A    between atoms: _165  and  _166
REMARK   70  A    between atoms: _165  and  _168
REMARK   71  A    between atoms: _168  and  _169
REMARK   72  A    between atoms: _169  and  _170
REMARK   73  A    between atoms: _170  and  _171
REMARK   74  A    between atoms: _171  and  _172
REMARK   75  A    between atoms: _176  and  _178
REMARK   76  A    between atoms: _178  and  _179
REMARK   77  A    between atoms: _181  and  _183
REMARK   78  A    between atoms: _183  and  _184
REMARK   79  A    between atoms: _183  and  _186
REMARK   80  A    between atoms: _189  and  _191
REMARK   81  A    between atoms: _191  and  _192
REMARK   82  A    between atoms: _191  and  _194
REMARK   83  A    between atoms: _194  and  _195
REMARK   84  A    between atoms: _197  and  _199
REMARK   85  A    between atoms: _199  and  _200
REMARK   86  A    between atoms: _199  and  _202
REMARK   87  A    between atoms: _202  and  _203
REMARK   88  A    between atoms: _205  and  _207
REMARK   89  A    between atoms: _207  and  _208
REMARK   90  A    between atoms: _207  and  _210
REMARK   91  A    between atoms: _210  and  _211
REMARK   92  A    between atoms: _217  and  _219
REMARK   93  A    between atoms: _219  and  _220
REMARK   94  A    between atoms: _219  and  _222
REMARK   95  A    between atoms: _222  and  _223
REMARK   96  A    between atoms: _226  and  _228
REMARK   97  A    between atoms: _228  and  _229
REMARK   98  A    between atoms: _228  and  _231
REMARK   99  A    between atoms: _231  and  _232
REMARK  100  A    between atoms: _235  and  _237
REMARK  101  A    between atoms: _237  and  _238
REMARK  102  A    between atoms: _237  and  _240
REMARK  103  A    between atoms: _240  and  _241
REMARK  104  A    between atoms: _244  and  _246
REMARK  105  A    between atoms: _246  and  _247
REMARK  106  A    between atoms: _246  and  _249
REMARK  107  A    between atoms: _249  and  _250
REMARK  108  A    between atoms: _250  and  _251
REMARK  109  A    between atoms: _253  and  _255
REMARK  110  A    between atoms: _255  and  _256
REMARK  111  A    between atoms: _255  and  _258
REMARK  112  A    between atoms: _258  and  _259
REMARK  113  A    between atoms: _265  and  _267
REMARK  114  A    between atoms: _267  and  _268
REMARK  115  A    between atoms: _267  and  _270
REMARK  116  A    between atoms: _272  and  _274
REMARK  117  A    between atoms: _274  and  _275
REMARK  118  A    between atoms: _278  and  _280
REMARK  119  A    between atoms: _280  and  _281
REMARK  120  A    between atoms: _283  and  _285
REMARK  121  A    between atoms: _285  and  _286
REMARK  122  A    between atoms: _285  and  _288
REMARK  123  A    between atoms: _288  and  _289
REMARK  124  A    between atoms: _289  and  _290
REMARK  125  A    between atoms: _293  and  _295
REMARK  126  A    between atoms: _295  and  _296
REMARK  127  A    between atoms: _295  and  _298
REMARK  128  A    between atoms: _298  and  _299
REMARK  129  A    between atoms: _302  and  _304
REMARK  130  A    between atoms: _304  and  _305
REMARK  131  A    between atoms: _308  and  _310
REMARK  132  A    between atoms: _310  and  _311
REMARK  133  A    between atoms: _310  and  _313
REMARK  134  A    between atoms: _313  and  _314
REMARK  135  A    between atoms: _314  and  _437
REMARK  136  A    between atoms: _315  and  _317
REMARK  137  A    between atoms: _317  and  _318
REMARK  138  A    between atoms: _317  and  _320
REMARK  139  A    between atoms: _320  and  _321
REMARK  140  A    between atoms: _321  and  _322
REMARK  141  A    between atoms: _327  and  _329
REMARK  142  A    between atoms: _329  and  _330
REMARK  143  A    between atoms: _332  and  _334
REMARK  144  A    between atoms: _334  and  _335
REMARK  145  A    between atoms: _334  and  _337
REMARK  146  A    between atoms: _337  and  _338
REMARK  147  A    between atoms: _341  and  _343
REMARK  148  A    between atoms: _343  and  _344
REMARK  149  A    between atoms: _343  and  _346
REMARK  150  A    between atoms: _346  and  _347
REMARK  151  A    between atoms: _349  and  _351
REMARK  152  A    between atoms: _351  and  _352
REMARK  153  A    between atoms: _354  and  _356
REMARK  154  A    between atoms: _356  and  _357
REMARK  155  A    between atoms: _359  and  _361
REMARK  156  A    between atoms: _361  and  _362
REMARK  157  A    between atoms: _361  and  _364
REMARK  158  A    between atoms: _364  and  _365
REMARK  159  A    between atoms: _370  and  _372
REMARK  160  A    between atoms: _372  and  _373
REMARK  161  A    between atoms: _372  and  _375
REMARK  162  A    between atoms: _375  and  _376
REMARK  163  A    between atoms: _379  and  _381
REMARK  164  A    between atoms: _381  and  _382
REMARK  165  A    between atoms: _381  and  _384
REMARK  166  A    between atoms: _387  and  _389
REMARK  167  A    between atoms: _389  and  _390
REMARK  168  A    between atoms: _389  and  _392
REMARK  169  A    between atoms: _392  and  _393
REMARK  170  A    between atoms: _395  and  _397
REMARK  171  A    between atoms: _397  and  _398
REMARK  172  A    between atoms: _397  and  _400
REMARK  173  A    between atoms: _400  and  _401
REMARK  174  A    between atoms: _411  and  _413
REMARK  175  A    between atoms: _413  and  _414
REMARK  176  A    between atoms: _416  and  _418
REMARK  177  A    between atoms: _418  and  _419
REMARK  178  A    between atoms: _418  and  _421
REMARK  179  A    between atoms: _421  and  _422
REMARK  180  A    between atoms: _422  and  _423
REMARK  181  A    between atoms: _426  and  _428
REMARK  182  A    between atoms: _428  and  _429
REMARK  183  A    between atoms: _431  and  _433
REMARK  184  A    between atoms: _433  and  _434
REMARK  185  A    between atoms: _433  and  _436
REMARK  186  A    between atoms: _436  and  _437
REMARK  187  A    between atoms: _438  and  _440
REMARK  188  A    between atoms: _440  and  _441
REMARK  189  A    between atoms: _444  and  _446
REMARK  190  A    between atoms: _446  and  _447
REMARK  191  A    between atoms: _446  and  _449
REMARK  192  A    between atoms: _449  and  _450
REMARK  193  A    between atoms: _450  and  _451
REMARK  194  A    between atoms: _451  and  _452
REMARK  195  A    between atoms: _461  and  _463
REMARK  196  A    between atoms: _463  and  _464
REMARK  197  A    between atoms: _463  and  _466
REMARK  198  A    between atoms: _466  and  _467
REMARK  199  A    between atoms: _467  and  _468
REMARK  200  A    between atoms: _468  and  _469
REMARK  201  A    between atoms: _469  and  _470
REMARK  202  A    between atoms: _474  and  _476
REMARK  203  A    between atoms: _476  and  _477
REMARK  204  A    between atoms: _476  and  _479
REMARK  205  A    between atoms: _479  and  _480
REMARK  206  A    between atoms: _485  and  _486
REMARK  207  A    between atoms: _488  and  _490
REMARK  208  A    between atoms: _490  and  _491
REMARK  209  A    between atoms: _493  and  _495
REMARK  210  A    between atoms: _495  and  _496
REMARK  211  A    between atoms: _495  and  _498
REMARK  212  A    between atoms: _498  and  _499
REMARK  213  A    between atoms: _502  and  _504
REMARK  214  A    between atoms: _504  and  _505
REMARK  215  A    between atoms: _504  and  _507
REMARK  216  A    between atoms: _507  and  _508
REMARK  217  A    between atoms: _513  and  _514
REMARK  218  A    between atoms: _516  and  _518
REMARK  219  A    between atoms: _518  and  _519
REMARK  220  A    between atoms: _518  and  _521
REMARK  221  A    between atoms: _521  and  _522
REMARK                            x       y       z     vdW  Elec       q    Type
REMARK                         _______ _______ _______ _____ _____    ______ ____
ROOT
ATOM      1  C   GLU A   2      10.463  74.277   5.408  0.00  0.00    +0.241 C 
ATOM      2  N   LYS A   3      10.102  75.525   5.646  0.00  0.00    -0.297 N 
ATOM      3  H   LYS A   3      10.278  75.958   6.575  0.00  0.00    +0.150 HD
ATOM      4  O   GLU A   2      10.316  73.758   4.308  0.00  0.00    -0.273 OA
ENDROOT
BRANCH   2   5
ATOM      5  CA  LYS A   3       9.457  76.282   4.593  0.00  0.00    +0.149 C 
BRANCH   5   6
ATOM      6  C   LYS A   3      10.406  77.237   3.870  0.00  0.00    +0.241 C 
ATOM      7  N   GLY A   4      11.679  77.203   4.258  0.00  0.00    -0.296 N 
ATOM      8  H   GLY A   4      11.974  76.531   4.995  0.00  0.00    +0.150 HD
ATOM      9  O   LYS A   3       9.988  77.970   2.962  0.00  0.00    -0.273 OA
BRANCH   7  10
ATOM     10  CA  GLY A   4      12.657  78.091   3.665  0.00  0.00    +0.163 C 
BRANCH  10  11
ATOM     11  C   GLY A   4      13.392  77.644   2.415  0.00  0.00    +0.229 C 
ATOM     12  O   GLY A   4      13.052  76.656   1.753  0.00  0.00    -0.286 OA
ENDBRANCH  10  11
ENDBRANCH   7  10
ENDBRANCH   5   6
BRANCH   5  13
ATOM     13  CB  LYS A   3       8.278  77.053   5.190  0.00  0.00    +0.029 C 
BRANCH  13  14
ATOM     14  CG  LYS A   3       7.252  76.152   5.892  0.00  0.00    +0.000 C 
BRANCH  14  15
ATOM     15  CD  LYS A   3       6.574  76.911   7.023  0.00  0.00    -0.024 C 
BRANCH  15  16
ATOM     16  CE  LYS A   3       5.610  76.031   7.799  0.00  0.00    -0.086 C 
BRANCH  16  17
ATOM     17  NZ  LYS A   3       4.977  76.776   8.923  0.00  0.00    +0.380 N 
ATOM     18  HZ1 LYS A   3       5.715  77.111   9.574  0.00  0.00    -0.089 HD
ATOM     19  HZ2 LYS A   3       4.325  76.145   9.432  0.00  0.00    -0.089 HD
ATOM     20  HZ3 LYS A   3       4.451  77.589   8.545  0.00  0.00    -0.089 HD
ENDBRANCH  16  17
ENDBRANCH  15  16
ENDBRANCH  14  15
ENDBRANCH  13  14
ENDBRANCH   5  13
ENDBRANCH   2   5
BRANCH   1  21
ATOM     21  CA  GLU A   2      11.095  73.500   6.559  0.00  0.00    +0.149 C 
BRANCH  21  23
ATOM     22  C   HIS A   1      13.071  74.887   6.662  0.00  0.00    +0.239 C 
ATOM     23  N   GLU A   2      12.107  74.226   7.304  0.00  0.00    -0.297 N 
ATOM     24  H   GLU A   2      12.080  74.231   8.344  0.00  0.00    +0.150 HD
ATOM     25  O   HIS A   1      13.117  74.953   5.433  0.00  0.00    -0.274 OA
BRANCH  22  26
ATOM     26  CA  HIS A   1      14.127  75.589   7.504  0.00  0.00    +0.151 C 
BRANCH  26  27
ATOM     27  N   HIS A   1      15.368  75.552   6.722  0.00  0.00    -0.238 NA
ATOM     28  H   HIS A   1      15.298  75.421   5.693  0.00  0.00    +0.142 HD
ENDBRANCH  26  27
BRANCH  26  29
ATOM     29  CB  HIS A   1      13.687  77.028   7.825  0.00  0.00    +0.074 C 
BRANCH  29  30
ATOM     30  CG  HIS A   1      12.379  77.094   8.559  0.00  0.00    +0.082 A 
ATOM     31  CD2 HIS A   1      12.095  77.020   9.882  0.00  0.00    +0.115 A 
ATOM     32  NE2 HIS A   1      10.725  77.029  10.005  0.00  0.00    -0.221 NA
ATOM     33  CE1 HIS A   1      10.186  77.112   8.801  0.00  0.00    +0.199 A 
ATOM     34  ND1 HIS A   1      11.162  77.155   7.911  0.00  0.00    -0.227 NA
ENDBRANCH  29  30
ENDBRANCH  26  29
ENDBRANCH  22  26
ENDBRANCH  21  23
BRANCH  21  35
ATOM     35  CB  GLU A   2       9.989  72.998   7.497  0.00  0.00    +0.041 C 
BRANCH  35  36
ATOM     36  CG  GLU A   2       9.069  71.971   6.856  0.00  0.00    +0.116 C 
BRANCH  36  37
ATOM     37  CD  GLU A   2       8.029  71.428   7.825  0.00  0.00    +0.365 C 
ATOM     38  OE2 GLU A   2       8.383  71.122   8.993  0.00  0.00    -0.246 OA
ATOM     39  OE1 GLU A   2       6.858  71.293   7.402  0.00  0.00    -0.246 OA
ENDBRANCH  36  37
ENDBRANCH  35  36
ENDBRANCH  21  35
ENDBRANCH   1  21
TORSDOF 18
REMARK  Name = ../refined-set-2016/2xbx/2xbx_pocket.pdb
REMARK  221 active torsions:
REMARK  status: ('A' for Active; 'I' for Inactive)
REMARK    1  A    between atoms: _1  and  _3
REMARK    2  A    between atoms: _3  and  _4
REMARK    3  A    between atoms: _3  and  _6
REMARK    4  A    between atoms: _9  and  _11
REMARK    5  A    between atoms: _11  and  _12
REMARK    6  A    between atoms: _11  and  _14
REMARK    7  A    between atoms: _14  and  _15
REMARK    8  A    between atoms: _20  and  _22
REMARK    9  A    between atoms: _22  and  _23
REMARK   10  A    between atoms: _22  and  _25
REMARK   11  A    between atoms: _25  and  _26
REMARK   12  A    between atoms: _26  and  _27
REMARK   13  A    between atoms: _32  and  _34
REMARK   14  A    between atoms: _34  and  _35
REMARK   15  A    between atoms: _34  and  _37
REMARK   16  A    between atoms: _37  and  _38
REMARK   17  A    between atoms: _44  and  _46
REMARK   18  A    between atoms: _46  and  _47
REMARK   19  A    between atoms: _46  and  _49
REMARK   20  A    between atoms: _49  and  _50
REMARK   21  A    between atoms: _53  and  _55
REMARK   22  A    between atoms: _55  and  _56
REMARK   23  A    between atoms: _55  and  _58
REMARK   24  A    between atoms: _58  and  _59
REMARK   25  A    between atoms: _59  and  _60
REMARK   26  A    between atoms: _60  and  _61
REMARK   27  A    between atoms: _61  and  _62
REMARK   28  A    between atoms: _66  and  _68
REMARK   29  A    between atoms: _68  and  _69
REMARK   30  A    between atoms: _68  and  _71
REMARK   31  A    between atoms: _71  and  _72
REMARK   32  A    between atoms: _72  and  _73
REMARK   33  A    between atoms: _76  and  _78
REMARK   34  A    between atoms: _78  and  _79
REMARK   35  A    between atoms: _78  and  _81
REMARK   36  A    between atoms: _81  and  _82
REMARK   37  A    between atoms: _85  and  _87
REMARK   38  A    between atoms: _87  and  _88
REMARK   39  A    between atoms: _87  and  _90
REMARK   40  A    between atoms: _90  and  _91
REMARK   41  A    between atoms: _96  and  _97
REMARK   42  A    between atoms: _99  and  _101
REMARK   43  A    between atoms: _101  and  _102
REMARK   44  A    between atoms: _101  and  _104
REMARK   45  A    between atoms: _104  and  _105
REMARK   46  A    between atoms: _108  and  _110
REMARK   47  A    between atoms: _110  and  _111
REMARK   48  A    between atoms: _110  and  _113
REMARK   49  A    between atoms: _113  and  _114
REMARK   50  A    between atoms: _117  and  _119
REMARK   51  A    between atoms: _119  and  _120
REMARK   52  A    between atoms: _119  and  _122
REMARK   53  A    between atoms: _125  and  _127
REMARK   54  A    between atoms: _127  and  _128
REMARK   55  A    between atoms: _127  and  _130
REMARK   56  A    between atoms: _130  and  _131
REMARK   57  A    between atoms: _131  and  _132
REMARK   58  A    between atoms: _132  and  _133
REMARK   59  A    between atoms: _142  and  _144
REMARK   60  A    between atoms: _144  and  _145
REMARK   61  A    between atoms: _144  and  _147
REMARK   62  A    between atoms: _147  and  _148
REMARK   63  A    between atoms: _153  and  _155
REMARK   64  A    between atoms: _155  and  _156
REMARK   65  A    between atoms: _155  and  _158
REMARK   66  A    between atoms: _158  and  _159
REMARK   67  A    between atoms: _159  and  _160
REMARK   68  A    between atoms: _163  and  _165
REMARK   69  A    between atoms: _165  and  _166
REMARK   70  A    between atoms: _165  and  _168
REMARK   71  A    between atoms: _168  and  _169
REMARK   72  A    between atoms: _169  and  _170
REMARK   73  A    between atoms: _170  and  _171
REMARK   74  A    between atoms: _171  and  _172
REMARK   75  A    between atoms: _176  and  _178
REMARK   76  A    between atoms: _178  and  _179
REMARK   77  A    between atoms: _181  and  _183
REMARK   78  A    between atoms: _183  and  _184
REMARK   79  A    between atoms: _183  and  _186
REMARK   80  A    between atoms: _189  and  _191
REMARK   81  A    between atoms: _191  and  _192
REMARK   82  A    between atoms: _191  and  _194
REMARK   83  A    between atoms: _194  and  _195
REMARK   84  A    between atoms: _197  and  _199
REMARK   85  A    between atoms: _199  and  _200
REMARK   86  A    between atoms: _199  and  _202
REMARK   87  A    between atoms: _202  and  _203
REMARK   88  A    between atoms: _205  and  _207
REMARK   89  A    between atoms: _207  and  _208
REMARK   90  A    between atoms: _207  and  _210
REMARK   91  A    between atoms: _210  and  _211
REMARK   92  A    between atoms: _217  and  _219
REMARK   93  A    between atoms: _219  and  _220
REMARK   94  A    between atoms: _219  and  _222
REMARK   95  A    between atoms: _222  and  _223
REMARK   96  A    between atoms: _226  and  _228
REMARK   97  A    between atoms: _228  and  _229
REMARK   98  A    between atoms: _228  and  _231
REMARK   99  A    between atoms: _231  and  _232
REMARK  100  A    between atoms: _235  and  _237
REMARK  101  A    between atoms: _237  and  _238
REMARK  102  A    between atoms: _237  and  _240
REMARK  103  A    between atoms: _240  and  _241
REMARK  104  A    between atoms: _244  and  _246
REMARK  105  A    between atoms: _246  and  _247
REMARK  106  A    between atoms: _246  and  _249
REMARK  107  A    between atoms: _249  and  _250
REMARK  108  A    between atoms: _250  and  _251
REMARK  109  A    between atoms: _253  and  _255
REMARK  110  A    between atoms: _255  and  _256
REMARK  111  A    between atoms: _255  and  _258
REMARK  112  A    between atoms: _258  and  _259
REMARK  113  A    between atoms: _265  and  _267
REMARK  114  A    between atoms: _267  and  _268
REMARK  115  A    between atoms: _267  and  _270
REMARK  116  A    between atoms: _272  and  _274
REMARK  117  A    between atoms: _274  and  _275
REMARK  118  A    between atoms: _278  and  _280
REMARK  119  A    between atoms: _280  and  _281
REMARK  120  A    between atoms: _283  and  _285
REMARK  121  A    between atoms: _285  and  _286
REMARK  122  A    between atoms: _285  and  _288
REMARK  123  A    between atoms: _288  and  _289
REMARK  124  A    between atoms: _289  and  _290
REMARK  125  A    between atoms: _293  and  _295
REMARK  126  A    between atoms: _295  and  _296
REMARK  127  A    between atoms: _295  and  _298
REMARK  128  A    between atoms: _298  and  _299
REMARK  129  A    between atoms: _302  and  _304
REMARK  130  A    between atoms: _304  and  _305
REMARK  131  A    between atoms: _308  and  _310
REMARK  132  A    between atoms: _310  and  _311
REMARK  133  A    between atoms: _310  and  _313
REMARK  134  A    between atoms: _313  and  _314
REMARK  135  A    between atoms: _314  and  _437
REMARK  136  A    between atoms: _315  and  _317
REMARK  137  A    between atoms: _317  and  _318
REMARK  138  A    between atoms: _317  and  _320
REMARK  139  A    between atoms: _320  and  _321
REMARK  140  A    between atoms: _321  and  _322
REMARK  141  A    between atoms: _327  and  _329
REMARK  142  A    between atoms: _329  and  _330
REMARK  143  A    between atoms: _332  and  _334
REMARK  144  A    between atoms: _334  and  _335
REMARK  145  A    between atoms: _334  and  _337
REMARK  146  A    between atoms: _337  and  _338
REMARK  147  A    between atoms: _341  and  _343
REMARK  148  A    between atoms: _343  and  _344
REMARK  149  A    between atoms: _343  and  _346
REMARK  150  A    between atoms: _346  and  _347
REMARK  151  A    between atoms: _349  and  _351
REMARK  152  A    between atoms: _351  and  _352
REMARK  153  A    between atoms: _354  and  _356
REMARK  154  A    between atoms: _356  and  _357
REMARK  155  A    between atoms: _359  and  _361
REMARK  156  A    between atoms: _361  and  _362
REMARK  157  A    between atoms: _361  and  _364
REMARK  158  A    between atoms: _364  and  _365
REMARK  159  A    between atoms: _370  and  _372
REMARK  160  A    between atoms: _372  and  _373
REMARK  161  A    between atoms: _372  and  _375
REMARK  162  A    between atoms: _375  and  _376
REMARK  163  A    between atoms: _379  and  _381
REMARK  164  A    between atoms: _381  and  _382
REMARK  165  A    between atoms: _381  and  _384
REMARK  166  A    between atoms: _387  and  _389
REMARK  167  A    between atoms: _389  and  _390
REMARK  168  A    between atoms: _389  and  _392
REMARK  169  A    between atoms: _392  and  _393
REMARK  170  A    between atoms: _395  and  _397
REMARK  171  A    between atoms: _397  and  _398
REMARK  172  A    between atoms: _397  and  _400
REMARK  173  A    between atoms: _400  and  _401
REMARK  174  A    between atoms: _411  and  _413
REMARK  175  A    between atoms: _413  and  _414
REMARK  176  A    between atoms: _416  and  _418
REMARK  177  A    between atoms: _418  and  _419
REMARK  178  A    between atoms: _418  and  _421
REMARK  179  A    between atoms: _421  and  _422
REMARK  180  A    between atoms: _422  and  _423
REMARK  181  A    between atoms: _426  and  _428
REMARK  182  A    between atoms: _428  and  _429
REMARK  183  A    between atoms: _431  and  _433
REMARK  184  A    between atoms: _433  and  _434
REMARK  185  A    between atoms: _433  and  _436
REMARK  186  A    between atoms: _436  and  _437
REMARK  187  A    between atoms: _438  and  _440
REMARK  188  A    between atoms: _440  and  _441
REMARK  189  A    between atoms: _444  and  _446
REMARK  190  A    between atoms: _446  and  _447
REMARK  191  A    between atoms: _446  and  _449
REMARK  192  A    between atoms: _449  and  _450
REMARK  193  A    between atoms: _450  and  _451
REMARK  194  A    between atoms: _451  and  _452
REMARK  195  A    between atoms: _461  and  _463
REMARK  196  A    between atoms: _463  and  _464
REMARK  197  A    between atoms: _463  and  _466
REMARK  198  A    between atoms: _466  and  _467
REMARK  199  A    between atoms: _467  and  _468
REMARK  200  A    between atoms: _468  and  _469
REMARK  201  A    between atoms: _469  and  _470
REMARK  202  A    between atoms: _474  and  _476
REMARK  203  A    between atoms: _476  and  _477
REMARK  204  A    between atoms: _476  and  _479
REMARK  205  A    between atoms: _479  and  _480
REMARK  206  A    between atoms: _485  and  _486
REMARK  207  A    between atoms: _488  and  _490
REMARK  208  A    between atoms: _490  and  _491
REMARK  209  A    between atoms: _493  and  _495
REMARK  210  A    between atoms: _495  and  _496
REMARK  211  A    between atoms: _495  and  _498
REMARK  212  A    between atoms: _498  and  _499
REMARK  213  A    between atoms: _502  and  _504
REMARK  214  A    between atoms: _504  and  _505
REMARK  215  A    between atoms: _504  and  _507
REMARK  216  A    between atoms: _507  and  _508
REMARK  217  A    between atoms: _513  and  _514
REMARK  218  A    between atoms: _516  and  _518
REMARK  219  A    between atoms: _518  and  _519
REMARK  220  A    between atoms: _518  and  _521
REMARK  221  A    between atoms: _521  and  _522
REMARK                            x       y       z     vdW  Elec       q    Type
REMARK                         _______ _______ _______ _____ _____    ______ ____
ROOT
ATOM      1  CA  VAL A   1      22.701  63.441  14.459  0.00  0.00    +0.133 C 
ENDROOT
BRANCH   1   2
ATOM      2  CB  VAL A   1      21.755  63.204  13.233  0.00  0.00    +0.023 C 
ATOM      3  CG2 VAL A   1      21.297  64.544  12.626  0.00  0.00    +0.002 C 
ATOM      4  CG1 VAL A   1      22.459  62.374  12.170  0.00  0.00    +0.002 C 
ENDBRANCH   1   2
BRANCH   1   5
ATOM      5  N   VAL A   1      24.023  63.923  14.067  0.00  0.00    -0.239 NA
ATOM      6  H   VAL A   1      24.662  63.312  13.520  0.00  0.00    +0.142 HD
ENDBRANCH   1   5
BRANCH   1   7
ATOM      7  C   VAL A   1      22.781  62.159  15.255  0.00  0.00    +0.224 C 
ATOM      8  O   VAL A   1      23.449  61.199  14.851  0.00  0.00    -0.287 OA
ENDBRANCH   1   7
TORSDOF 3
REMARK  Name = ../refined-set-2016/2xbx/2xbx_pocket.pdb
REMARK  221 active torsions:
REMARK  status: ('A' for Active; 'I' for Inactive)
REMARK    1  A    between atoms: _1  and  _3
REMARK    2  A    between atoms: _3  and  _4
REMARK    3  A    between atoms: _3  and  _6
REMARK    4  A    between atoms: _9  and  _11
REMARK    5  A    between atoms: _11  and  _12
REMARK    6  A    between atoms: _11  and  _14
REMARK    7  A    between atoms: _14  and  _15
REMARK    8  A    between atoms: _20  and  _22
REMARK    9  A    between atoms: _22  and  _23
REMARK   10  A    between atoms: _22  and  _25
REMARK   11  A    between atoms: _25  and  _26
REMARK   12  A    between atoms: _26  and  _27
REMARK   13  A    between atoms: _32  and  _34
REMARK   14  A    between atoms: _34  and  _35
REMARK   15  A    between atoms: _34  and  _37
REMARK   16  A    between atoms: _37  and  _38
REMARK   17  A    between atoms: _44  and  _46
REMARK   18  A    between atoms: _46  and  _47
REMARK   19  A    between atoms: _46  and  _49
REMARK   20  A    between atoms: _49  and  _50
REMARK   21  A    between atoms: _53  and  _55
REMARK   22  A    between atoms: _55  and  _56
REMARK   23  A    between atoms: _55  and  _58
REMARK   24  A    between atoms: _58  and  _59
REMARK   25  A    between atoms: _59  and  _60
REMARK   26  A    between atoms: _60  and  _61
REMARK   27  A    between atoms: _61  and  _62
REMARK   28  A    between atoms: _66  and  _68
REMARK   29  A    between atoms: _68  and  _69
REMARK   30  A    between atoms: _68  and  _71
REMARK   31  A    between atoms: _71  and  _72
REMARK   32  A    between atoms: _72  and  _73
REMARK   33  A    between atoms: _76  and  _78
REMARK   34  A    between atoms: _78  and  _79
REMARK   35  A    between atoms: _78  and  _81
REMARK   36  A    between atoms: _81  and  _82
REMARK   37  A    between atoms: _85  and  _87
REMARK   38  A    between atoms: _87  and  _88
REMARK   39  A    between atoms: _87  and  _90
REMARK   40  A    between atoms: _90  and  _91
REMARK   41  A    between atoms: _96  and  _97
REMARK   42  A    between atoms: _99  and  _101
REMARK   43  A    between atoms: _101  and  _102
REMARK   44  A    between atoms: _101  and  _104
REMARK   45  A    between atoms: _104  and  _105
REMARK   46  A    between atoms: _108  and  _110
REMARK   47  A    between atoms: _110  and  _111
REMARK   48  A    between atoms: _110  and  _113
REMARK   49  A    between atoms: _113  and  _114
REMARK   50  A    between atoms: _117  and  _119
REMARK   51  A    between atoms: _119  and  _120
REMARK   52  A    between atoms: _119  and  _122
REMARK   53  A    between atoms: _125  and  _127
REMARK   54  A    between atoms: _127  and  _128
REMARK   55  A    between atoms: _127  and  _130
REMARK   56  A    between atoms: _130  and  _131
REMARK   57  A    between atoms: _131  and  _132
REMARK   58  A    between atoms: _132  and  _133
REMARK   59  A    between atoms: _142  and  _144
REMARK   60  A    between atoms: _144  and  _145
REMARK   61  A    between atoms: _144  and  _147
REMARK   62  A    between atoms: _147  and  _148
REMARK   63  A    between atoms: _153  and  _155
REMARK   64  A    between atoms: _155  and  _156
REMARK   65  A    between atoms: _155  and  _158
REMARK   66  A    between atoms: _158  and  _159
REMARK   67  A    between atoms: _159  and  _160
REMARK   68  A    between atoms: _163  and  _165
REMARK   69  A    between atoms: _165  and  _166
REMARK   70  A    between atoms: _165  and  _168
REMARK   71  A    between atoms: _168  and  _169
REMARK   72  A    between atoms: _169  and  _170
REMARK   73  A    between atoms: _170  and  _171
REMARK   74  A    between atoms: _171  and  _172
REMARK   75  A    between atoms: _176  and  _178
REMARK   76  A    between atoms: _178  and  _179
REMARK   77  A    between atoms: _181  and  _183
REMARK   78  A    between atoms: _183  and  _184
REMARK   79  A    between atoms: _183  and  _186
REMARK   80  A    between atoms: _189  and  _191
REMARK   81  A    between atoms: _191  and  _192
REMARK   82  A    between atoms: _191  and  _194
REMARK   83  A    between atoms: _194  and  _195
REMARK   84  A    between atoms: _197  and  _199
REMARK   85  A    between atoms: _199  and  _200
REMARK   86  A    between atoms: _199  and  _202
REMARK   87  A    between atoms: _202  and  _203
REMARK   88  A    between atoms: _205  and  _207
REMARK   89  A    between atoms: _207  and  _208
REMARK   90  A    between atoms: _207  and  _210
REMARK   91  A    between atoms: _210  and  _211
REMARK   92  A    between atoms: _217  and  _219
REMARK   93  A    between atoms: _219  and  _220
REMARK   94  A    between atoms: _219  and  _222
REMARK   95  A    between atoms: _222  and  _223
REMARK   96  A    between atoms: _226  and  _228
REMARK   97  A    between atoms: _228  and  _229
REMARK   98  A    between atoms: _228  and  _231
REMARK   99  A    between atoms: _231  and  _232
REMARK  100  A    between atoms: _235  and  _237
REMARK  101  A    between atoms: _237  and  _238
REMARK  102  A    between atoms: _237  and  _240
REMARK  103  A    between atoms: _240  and  _241
REMARK  104  A    between atoms: _244  and  _246
REMARK  105  A    between atoms: _246  and  _247
REMARK  106  A    between atoms: _246  and  _249
REMARK  107  A    between atoms: _249  and  _250
REMARK  108  A    between atoms: _250  and  _251
REMARK  109  A    between atoms: _253  and  _255
REMARK  110  A    between atoms: _255  and  _256
REMARK  111  A    between atoms: _255  and  _258
REMARK  112  A    between atoms: _258  and  _259
REMARK  113  A    between atoms: _265  and  _267
REMARK  114  A    between atoms: _267  and  _268
REMARK  115  A    between atoms: _267  and  _270
REMARK  116  A    between atoms: _272  and  _274
REMARK  117  A    between atoms: _274  and  _275
REMARK  118  A    between atoms: _278  and  _280
REMARK  119  A    between atoms: _280  and  _281
REMARK  120  A    between atoms: _283  and  _285
REMARK  121  A    between atoms: _285  and  _286
REMARK  122  A    between atoms: _285  and  _288
REMARK  123  A    between atoms: _288  and  _289
REMARK  124  A    between atoms: _289  and  _290
REMARK  125  A    between atoms: _293  and  _295
REMARK  126  A    between atoms: _295  and  _296
REMARK  127  A    between atoms: _295  and  _298
REMARK  128  A    between atoms: _298  and  _299
REMARK  129  A    between atoms: _302  and  _304
REMARK  130  A    between atoms: _304  and  _305
REMARK  131  A    between atoms: _308  and  _310
REMARK  132  A    between atoms: _310  and  _311
REMARK  133  A    between atoms: _310  and  _313
REMARK  134  A    between atoms: _313  and  _314
REMARK  135  A    between atoms: _314  and  _437
REMARK  136  A    between atoms: _315  and  _317
REMARK  137  A    between atoms: _317  and  _318
REMARK  138  A    between atoms: _317  and  _320
REMARK  139  A    between atoms: _320  and  _321
REMARK  140  A    between atoms: _321  and  _322
REMARK  141  A    between atoms: _327  and  _329
REMARK  142  A    between atoms: _329  and  _330
REMARK  143  A    between atoms: _332  and  _334
REMARK  144  A    between atoms: _334  and  _335
REMARK  145  A    between atoms: _334  and  _337
REMARK  146  A    between atoms: _337  and  _338
REMARK  147  A    between atoms: _341  and  _343
REMARK  148  A    between atoms: _343  and  _344
REMARK  149  A    between atoms: _343  and  _346
REMARK  150  A    between atoms: _346  and  _347
REMARK  151  A    between atoms: _349  and  _351
REMARK  152  A    between atoms: _351  and  _352
REMARK  153  A    between atoms: _354  and  _356
REMARK  154  A    between atoms: _356  and  _357
REMARK  155  A    between atoms: _359  and  _361
REMARK  156  A    between atoms: _361  and  _362
REMARK  157  A    between atoms: _361  and  _364
REMARK  158  A    between atoms: _364  and  _365
REMARK  159  A    between atoms: _370  and  _372
REMARK  160  A    between atoms: _372  and  _373
REMARK  161  A    between atoms: _372  and  _375
REMARK  162  A    between atoms: _375  and  _376
REMARK  163  A    between atoms: _379  and  _381
REMARK  164  A    between atoms: _381  and  _382
REMARK  165  A    between atoms: _381  and  _384
REMARK  166  A    between atoms: _387  and  _389
REMARK  167  A    between atoms: _389  and  _390
REMARK  168  A    between atoms: _389  and  _392
REMARK  169  A    between atoms: _392  and  _393
REMARK  170  A    between atoms: _395  and  _397
REMARK  171  A    between atoms: _397  and  _398
REMARK  172  A    between atoms: _397  and  _400
REMARK  173  A    between atoms: _400  and  _401
REMARK  174  A    between atoms: _411  and  _413
REMARK  175  A    between atoms: _413  and  _414
REMARK  176  A    between atoms: _416  and  _418
REMARK  177  A    between atoms: _418  and  _419
REMARK  178  A    between atoms: _418  and  _421
REMARK  179  A    between atoms: _421  and  _422
REMARK  180  A    between atoms: _422  and  _423
REMARK  181  A    between atoms: _426  and  _428
REMARK  182  A    between atoms: _428  and  _429
REMARK  183  A    between atoms: _431  and  _433
REMARK  184  A    between atoms: _433  and  _434
REMARK  185  A    between atoms: _433  and  _436
REMARK  186  A    between atoms: _436  and  _437
REMARK  187  A    between atoms: _438  and  _440
REMARK  188  A    between atoms: _440  and  _441
REMARK  189  A    between atoms: _444  and  _446
REMARK  190  A    between atoms: _446  and  _447
REMARK  191  A    between atoms: _446  and  _449
REMARK  192  A    between atoms: _449  and  _450
REMARK  193  A    between atoms: _450  and  _451
REMARK  194  A    between atoms: _451  and  _452
REMARK  195  A    between atoms: _461  and  _463
REMARK  196  A    between atoms: _463  and  _464
REMARK  197  A    between atoms: _463  and  _466
REMARK  198  A    between atoms: _466  and  _467
REMARK  199  A    between atoms: _467  and  _468
REMARK  200  A    between atoms: _468  and  _469
REMARK  201  A    between atoms: _469  and  _470
REMARK  202  A    between atoms: _474  and  _476
REMARK  203  A    between atoms: _476  and  _477
REMARK  204  A    between atoms: _476  and  _479
REMARK  205  A    between atoms: _479  and  _480
REMARK  206  A    between atoms: _485  and  _486
REMARK  207  A    between atoms: _488  and  _490
REMARK  208  A    between atoms: _490  and  _491
REMARK  209  A    between atoms: _493  and  _495
REMARK  210  A    between atoms: _495  and  _496
REMARK  211  A    between atoms: _495  and  _498
REMARK  212  A    between atoms: _498  and  _499
REMARK  213  A    between atoms: _502  and  _504
REMARK  214  A    between atoms: _504  and  _505
REMARK  215  A    between atoms: _504  and  _507
REMARK  216  A    between atoms: _507  and  _508
REMARK  217  A    between atoms: _513  and  _514
REMARK  218  A    between atoms: _516  and  _518
REMARK  219  A    between atoms: _518  and  _519
REMARK  220  A    between atoms: _518  and  _521
REMARK  221  A    between atoms: _521  and  _522
REMARK                            x       y       z     vdW  Elec       q    Type
REMARK                         _______ _______ _______ _____ _____    ______ ____
ROOT
ATOM      1  C   PHE A   3       5.258  54.760   8.803  0.00  0.00    +0.241 C 
ATOM      2  O   PHE A   3       5.961  54.916   9.806  0.00  0.00    -0.273 OA
ATOM      3  N   ILE A   4       5.184  53.625   8.117  0.00  0.00    -0.297 N 
ATOM      4  H   ILE A   4       4.586  53.585   7.267  0.00  0.00    +0.150 HD
ENDROOT
BRANCH   3   5
ATOM      5  CA  ILE A   4       5.922  52.428   8.525  0.00  0.00    +0.149 C 
BRANCH   5   6
ATOM      6  C   ILE A   4       7.435  52.591   8.382  0.00  0.00    +0.241 C 
ATOM      7  N   ILE A   5       8.169  52.215   9.420  0.00  0.00    -0.297 N 
ATOM      8  H   ILE A   5       7.699  51.863  10.279  0.00  0.00    +0.150 HD
ATOM      9  O   ILE A   4       7.933  53.078   7.356  0.00  0.00    -0.273 OA
BRANCH   7  10
ATOM     10  CA  ILE A   5       9.624  52.287   9.376  0.00  0.00    +0.149 C 
BRANCH  10  11
ATOM     11  C   ILE A   5      10.014  50.830   9.125  0.00  0.00    +0.241 C 
ATOM     12  O   ILE A   5       9.702  49.965   9.938  0.00  0.00    -0.273 OA
ATOM     13  N   THR A   6      10.693  50.557   8.015  0.00  0.00    -0.296 N 
ATOM     14  H   THR A   6      10.951  51.328   7.367  0.00  0.00    +0.150 HD
BRANCH  13  15
ATOM     15  CA  THR A   6      11.079  49.191   7.698  0.00  0.00    +0.164 C 
BRANCH  15  16
ATOM     16  CB  THR A   6      11.029  48.910   6.177  0.00  0.00    +0.136 C 
ATOM     17  CG2 THR A   6       9.655  49.262   5.581  0.00  0.00    +0.034 C 
BRANCH  16  18
ATOM     18  OG1 THR A   6      12.052  49.683   5.525  0.00  0.00    -0.382 OA
ATOM     19  HG1 THR A   6      12.026  49.508   4.551  0.00  0.00    +0.210 HD
ENDBRANCH  16  18
ENDBRANCH  15  16
BRANCH  15  20
ATOM     20  C   THR A   6      12.495  48.899   8.146  0.00  0.00    +0.229 C 
ATOM     21  O   THR A   6      13.227  49.793   8.572  0.00  0.00    -0.286 OA
ENDBRANCH  15  20
ENDBRANCH  13  15
ENDBRANCH  10  11
BRANCH  10  22
ATOM     22  CB  ILE A   5      10.213  52.737  10.739  0.00  0.00    +0.027 C 
ATOM     23  CG2 ILE A   5      11.740  52.772  10.674  0.00  0.00    +0.002 C 
BRANCH  22  24
ATOM     24  CG1 ILE A   5       9.669  54.122  11.124  0.00  0.00    +0.002 C 
ATOM     25  CD1 ILE A   5       9.901  55.198  10.024  0.00  0.00    +0.000 C 
ENDBRANCH  22  24
ENDBRANCH  10  22
ENDBRANCH   7  10
ENDBRANCH   5   6
BRANCH   5  26
ATOM     26  CB  ILE A   4       5.448  51.240   7.689  0.00  0.00    +0.027 C 
ATOM     27  CG2 ILE A   4       6.347  50.051   7.907  0.00  0.00    +0.002 C 
BRANCH  26  28
ATOM     28  CG1 ILE A   4       4.001  50.901   8.091  0.00  0.00    +0.002 C 
ATOM     29  CD1 ILE A   4       3.302  49.998   7.081  0.00  0.00    +0.000 C 
ENDBRANCH  26  28
ENDBRANCH   5  26
ENDBRANCH   3   5
BRANCH   1  30
ATOM     30  CA  PHE A   3       4.430  55.905   8.249  0.00  0.00    +0.153 C 
BRANCH  30  33
ATOM     31  C   SER A   2       2.995  57.247   9.697  0.00  0.00    +0.243 C 
ATOM     32  O   SER A   2       1.998  56.616   9.360  0.00  0.00    -0.273 OA
ATOM     33  N   PHE A   3       4.209  56.955   9.235  0.00  0.00    -0.297 N 
ATOM     34  H   PHE A   3       5.025  57.493   9.589  0.00  0.00    +0.150 HD
BRANCH  31  35
ATOM     35  CA  SER A   2       2.880  58.427  10.674  0.00  0.00    +0.178 C 
BRANCH  35  38
ATOM     36  C   SER A   1       4.626  57.801  12.271  0.00  0.00    +0.241 C 
ATOM     37  O   SER A   1       3.992  56.846  12.704  0.00  0.00    -0.274 OA
ATOM     38  N   SER A   2       4.178  58.628  11.321  0.00  0.00    -0.295 N 
ATOM     39  H   SER A   2       4.767  59.436  11.034  0.00  0.00    +0.150 HD
BRANCH  36  40
ATOM     40  CA  SER A   1       6.012  58.092  12.790  0.00  0.00    +0.174 C 
BRANCH  40  41
ATOM     41  N   SER A   1       6.271  57.987  14.223  0.00  0.00    -0.236 NA
ATOM     42  H   SER A   1       6.551  57.068  14.620  0.00  0.00    +0.142 HD
ENDBRANCH  40  41
BRANCH  40  43
ATOM     43  CB  SER A   1       7.010  57.181  12.056  0.00  0.00    +0.163 C 
BRANCH  43  44
ATOM     44  OG  SER A   1       6.846  57.214  10.634  0.00  0.00    -0.380 OA
ATOM     45  H   SER A   1       5.932  56.913  10.401  0.00  0.00    +0.211 HD
ENDBRANCH  43  44
ENDBRANCH  40  43
ENDBRANCH  36  40
ENDBRANCH  35  38
BRANCH  35  46
ATOM     46  CB  SER A   2       2.458  59.668   9.850  0.00  0.00    +0.166 C 
BRANCH  46  47
ATOM     47  OG  SER A   2       2.352  60.832  10.654  0.00  0.00    -0.380 OA
ATOM     48  H   SER A   2       2.081  61.598  10.089  0.00  0.00    +0.211 HD
ENDBRANCH  46  47
ENDBRANCH  35  46
ENDBRANCH  31  35
ENDBRANCH  30  33
BRANCH  30  49
ATOM     49  CB  PHE A   3       5.155  56.485   7.026  0.00  0.00    +0.055 C 
BRANCH  49  50
ATOM     50  CG  PHE A   3       4.481  57.725   6.463  0.00  0.00    -0.020 A 
ATOM     51  CD2 PHE A   3       4.925  58.993   6.819  0.00  0.00    -0.004 A 
ATOM     52  CE2 PHE A   3       4.241  60.154   6.396  0.00  0.00    -0.000 A 
ATOM     53  CZ  PHE A   3       3.098  60.020   5.605  0.00  0.00    -0.000 A 
ATOM     54  CE1 PHE A   3       2.647  58.752   5.245  0.00  0.00    -0.000 A 
ATOM     55  CD1 PHE A   3       3.337  57.606   5.670  0.00  0.00    -0.004 A 
ENDBRANCH  49  50
ENDBRANCH  30  49
ENDBRANCH   1  30
TORSDOF 24
REMARK  Name = ../refined-set-2016/2xbx/2xbx_pocket.pdb
REMARK  221 active torsions:
REMARK  status: ('A' for Active; 'I' for Inactive)
REMARK    1  A    between atoms: _1  and  _3
REMARK    2  A    between atoms: _3  and  _4
REMARK    3  A    between atoms: _3  and  _6
REMARK    4  A    between atoms: _9  and  _11
REMARK    5  A    between atoms: _11  and  _12
REMARK    6  A    between atoms: _11  and  _14
REMARK    7  A    between atoms: _14  and  _15
REMARK    8  A    between atoms: _20  and  _22
REMARK    9  A    between atoms: _22  and  _23
REMARK   10  A    between atoms: _22  and  _25
REMARK   11  A    between atoms: _25  and  _26
REMARK   12  A    between atoms: _26  and  _27
REMARK   13  A    between atoms: _32  and  _34
REMARK   14  A    between atoms: _34  and  _35
REMARK   15  A    between atoms: _34  and  _37
REMARK   16  A    between atoms: _37  and  _38
REMARK   17  A    between atoms: _44  and  _46
REMARK   18  A    between atoms: _46  and  _47
REMARK   19  A    between atoms: _46  and  _49
REMARK   20  A    between atoms: _49  and  _50
REMARK   21  A    between atoms: _53  and  _55
REMARK   22  A    between atoms: _55  and  _56
REMARK   23  A    between atoms: _55  and  _58
REMARK   24  A    between atoms: _58  and  _59
REMARK   25  A    between atoms: _59  and  _60
REMARK   26  A    between atoms: _60  and  _61
REMARK   27  A    between atoms: _61  and  _62
REMARK   28  A    between atoms: _66  and  _68
REMARK   29  A    between atoms: _68  and  _69
REMARK   30  A    between atoms: _68  and  _71
REMARK   31  A    between atoms: _71  and  _72
REMARK   32  A    between atoms: _72  and  _73
REMARK   33  A    between atoms: _76  and  _78
REMARK   34  A    between atoms: _78  and  _79
REMARK   35  A    between atoms: _78  and  _81
REMARK   36  A    between atoms: _81  and  _82
REMARK   37  A    between atoms: _85  and  _87
REMARK   38  A    between atoms: _87  and  _88
REMARK   39  A    between atoms: _87  and  _90
REMARK   40  A    between atoms: _90  and  _91
REMARK   41  A    between atoms: _96  and  _97
REMARK   42  A    between atoms: _99  and  _101
REMARK   43  A    between atoms: _101  and  _102
REMARK   44  A    between atoms: _101  and  _104
REMARK   45  A    between atoms: _104  and  _105
REMARK   46  A    between atoms: _108  and  _110
REMARK   47  A    between atoms: _110  and  _111
REMARK   48  A    between atoms: _110  and  _113
REMARK   49  A    between atoms: _113  and  _114
REMARK   50  A    between atoms: _117  and  _119
REMARK   51  A    between atoms: _119  and  _120
REMARK   52  A    between atoms: _119  and  _122
REMARK   53  A    between atoms: _125  and  _127
REMARK   54  A    between atoms: _127  and  _128
REMARK   55  A    between atoms: _127  and  _130
REMARK   56  A    between atoms: _130  and  _131
REMARK   57  A    between atoms: _131  and  _132
REMARK   58  A    between atoms: _132  and  _133
REMARK   59  A    between atoms: _142  and  _144
REMARK   60  A    between atoms: _144  and  _145
REMARK   61  A    between atoms: _144  and  _147
REMARK   62  A    between atoms: _147  and  _148
REMARK   63  A    between atoms: _153  and  _155
REMARK   64  A    between atoms: _155  and  _156
REMARK   65  A    between atoms: _155  and  _158
REMARK   66  A    between atoms: _158  and  _159
REMARK   67  A    between atoms: _159  and  _160
REMARK   68  A    between atoms: _163  and  _165
REMARK   69  A    between atoms: _165  and  _166
REMARK   70  A    between atoms: _165  and  _168
REMARK   71  A    between atoms: _168  and  _169
REMARK   72  A    between atoms: _169  and  _170
REMARK   73  A    between atoms: _170  and  _171
REMARK   74  A    between atoms: _171  and  _172
REMARK   75  A    between atoms: _176  and  _178
REMARK   76  A    between atoms: _178  and  _179
REMARK   77  A    between atoms: _181  and  _183
REMARK   78  A    between atoms: _183  and  _184
REMARK   79  A    between atoms: _183  and  _186
REMARK   80  A    between atoms: _189  and  _191
REMARK   81  A    between atoms: _191  and  _192
REMARK   82  A    between atoms: _191  and  _194
REMARK   83  A    between atoms: _194  and  _195
REMARK   84  A    between atoms: _197  and  _199
REMARK   85  A    between atoms: _199  and  _200
REMARK   86  A    between atoms: _199  and  _202
REMARK   87  A    between atoms: _202  and  _203
REMARK   88  A    between atoms: _205  and  _207
REMARK   89  A    between atoms: _207  and  _208
REMARK   90  A    between atoms: _207  and  _210
REMARK   91  A    between atoms: _210  and  _211
REMARK   92  A    between atoms: _217  and  _219
REMARK   93  A    between atoms: _219  and  _220
REMARK   94  A    between atoms: _219  and  _222
REMARK   95  A    between atoms: _222  and  _223
REMARK   96  A    between atoms: _226  and  _228
REMARK   97  A    between atoms: _228  and  _229
REMARK   98  A    between atoms: _228  and  _231
REMARK   99  A    between atoms: _231  and  _232
REMARK  100  A    between atoms: _235  and  _237
REMARK  101  A    between atoms: _237  and  _238
REMARK  102  A    between atoms: _237  and  _240
REMARK  103  A    between atoms: _240  and  _241
REMARK  104  A    between atoms: _244  and  _246
REMARK  105  A    between atoms: _246  and  _247
REMARK  106  A    between atoms: _246  and  _249
REMARK  107  A    between atoms: _249  and  _250
REMARK  108  A    between atoms: _250  and  _251
REMARK  109  A    between atoms: _253  and  _255
REMARK  110  A    between atoms: _255  and  _256
REMARK  111  A    between atoms: _255  and  _258
REMARK  112  A    between atoms: _258  and  _259
REMARK  113  A    between atoms: _265  and  _267
REMARK  114  A    between atoms: _267  and  _268
REMARK  115  A    between atoms: _267  and  _270
REMARK  116  A    between atoms: _272  and  _274
REMARK  117  A    between atoms: _274  and  _275
REMARK  118  A    between atoms: _278  and  _280
REMARK  119  A    between atoms: _280  and  _281
REMARK  120  A    between atoms: _283  and  _285
REMARK  121  A    between atoms: _285  and  _286
REMARK  122  A    between atoms: _285  and  _288
REMARK  123  A    between atoms: _288  and  _289
REMARK  124  A    between atoms: _289  and  _290
REMARK  125  A    between atoms: _293  and  _295
REMARK  126  A    between atoms: _295  and  _296
REMARK  127  A    between atoms: _295  and  _298
REMARK  128  A    between atoms: _298  and  _299
REMARK  129  A    between atoms: _302  and  _304
REMARK  130  A    between atoms: _304  and  _305
REMARK  131  A    between atoms: _308  and  _310
REMARK  132  A    between atoms: _310  and  _311
REMARK  133  A    between atoms: _310  and  _313
REMARK  134  A    between atoms: _313  and  _314
REMARK  135  A    between atoms: _314  and  _437
REMARK  136  A    between atoms: _315  and  _317
REMARK  137  A    between atoms: _317  and  _318
REMARK  138  A    between atoms: _317  and  _320
REMARK  139  A    between atoms: _320  and  _321
REMARK  140  A    between atoms: _321  and  _322
REMARK  141  A    between atoms: _327  and  _329
REMARK  142  A    between atoms: _329  and  _330
REMARK  143  A    between atoms: _332  and  _334
REMARK  144  A    between atoms: _334  and  _335
REMARK  145  A    between atoms: _334  and  _337
REMARK  146  A    between atoms: _337  and  _338
REMARK  147  A    between atoms: _341  and  _343
REMARK  148  A    between atoms: _343  and  _344
REMARK  149  A    between atoms: _343  and  _346
REMARK  150  A    between atoms: _346  and  _347
REMARK  151  A    between atoms: _349  and  _351
REMARK  152  A    between atoms: _351  and  _352
REMARK  153  A    between atoms: _354  and  _356
REMARK  154  A    between atoms: _356  and  _357
REMARK  155  A    between atoms: _359  and  _361
REMARK  156  A    between atoms: _361  and  _362
REMARK  157  A    between atoms: _361  and  _364
REMARK  158  A    between atoms: _364  and  _365
REMARK  159  A    between atoms: _370  and  _372
REMARK  160  A    between atoms: _372  and  _373
REMARK  161  A    between atoms: _372  and  _375
REMARK  162  A    between atoms: _375  and  _376
REMARK  163  A    between atoms: _379  and  _381
REMARK  164  A    between atoms: _381  and  _382
REMARK  165  A    between atoms: _381  and  _384
REMARK  166  A    between atoms: _387  and  _389
REMARK  167  A    between atoms: _389  and  _390
REMARK  168  A    between atoms: _389  and  _392
REMARK  169  A    between atoms: _392  and  _393
REMARK  170  A    between atoms: _395  and  _397
REMARK  171  A    between atoms: _397  and  _398
REMARK  172  A    between atoms: _397  and  _400
REMARK  173  A    between atoms: _400  and  _401
REMARK  174  A    between atoms: _411  and  _413
REMARK  175  A    between atoms: _413  and  _414
REMARK  176  A    between atoms: _416  and  _418
REMARK  177  A    between atoms: _418  and  _419
REMARK  178  A    between atoms: _418  and  _421
REMARK  179  A    between atoms: _421  and  _422
REMARK  180  A    between atoms: _422  and  _423
REMARK  181  A    between atoms: _426  and  _428
REMARK  182  A    between atoms: _428  and  _429
REMARK  183  A    between atoms: _431  and  _433
REMARK  184  A    between atoms: _433  and  _434
REMARK  185  A    between atoms: _433  and  _436
REMARK  186  A    between atoms: _436  and  _437
REMARK  187  A    between atoms: _438  and  _440
REMARK  188  A    between atoms: _440  and  _441
REMARK  189  A    between atoms: _444  and  _446
REMARK  190  A    between atoms: _446  and  _447
REMARK  191  A    between atoms: _446  and  _449
REMARK  192  A    between atoms: _449  and  _450
REMARK  193  A    between atoms: _450  and  _451
REMARK  194  A    between atoms: _451  and  _452
REMARK  195  A    between atoms: _461  and  _463
REMARK  196  A    between atoms: _463  and  _464
REMARK  197  A    between atoms: _463  and  _466
REMARK  198  A    between atoms: _466  and  _467
REMARK  199  A    between atoms: _467  and  _468
REMARK  200  A    between atoms: _468  and  _469
REMARK  201  A    between atoms: _469  and  _470
REMARK  202  A    between atoms: _474  and  _476
REMARK  203  A    between atoms: _476  and  _477
REMARK  204  A    between atoms: _476  and  _479
REMARK  205  A    between atoms: _479  and  _480
REMARK  206  A    between atoms: _485  and  _486
REMARK  207  A    between atoms: _488  and  _490
REMARK  208  A    between atoms: _490  and  _491
REMARK  209  A    between atoms: _493  and  _495
REMARK  210  A    between atoms: _495  and  _496
REMARK  211  A    between atoms: _495  and  _498
REMARK  212  A    between atoms: _498  and  _499
REMARK  213  A    between atoms: _502  and  _504
REMARK  214  A    between atoms: _504  and  _505
REMARK  215  A    between atoms: _504  and  _507
REMARK  216  A    between atoms: _507  and  _508
REMARK  217  A    between atoms: _513  and  _514
REMARK  218  A    between atoms: _516  and  _518
REMARK  219  A    between atoms: _518  and  _519
REMARK  220  A    between atoms: _518  and  _521
REMARK  221  A    between atoms: _521  and  _522
REMARK                            x       y       z     vdW  Elec       q    Type
REMARK                         _______ _______ _______ _____ _____    ______ ____
ROOT
ATOM      1  C   PHE A   2      16.628  55.189  10.730  0.00  0.00    +0.241 C 
ATOM      2  N   CYS A   3      16.500  55.564  11.998  0.00  0.00    -0.296 N 
ATOM      3  H   CYS A   3      16.652  54.872  12.759  0.00  0.00    +0.150 HD
ATOM      4  O   PHE A   2      16.483  55.974   9.785  0.00  0.00    -0.273 OA
ENDROOT
BRANCH   2   5
ATOM      5  CA  CYS A   3      16.149  56.933  12.327  0.00  0.00    +0.160 C 
BRANCH   5   6
ATOM      6  C   CYS A   3      17.265  57.629  13.060  0.00  0.00    +0.242 C 
ATOM      7  O   CYS A   3      18.045  56.997  13.777  0.00  0.00    -0.273 OA
ATOM      8  N   ALA A   4      17.352  58.929  12.865  0.00  0.00    -0.297 N 
ATOM      9  H   ALA A   4      16.698  59.414  12.218  0.00  0.00    +0.150 HD
BRANCH   8  10
ATOM     10  CA  ALA A   4      18.388  59.677  13.578  0.00  0.00    +0.149 C 
ATOM     11  CB  ALA A   4      19.723  59.569  12.835  0.00  0.00    +0.031 C 
BRANCH  10  12
ATOM     12  C   ALA A   4      17.948  61.118  13.700  0.00  0.00    +0.241 C 
ATOM     13  N   GLY A   5      18.526  61.831  14.657  0.00  0.00    -0.296 N 
ATOM     14  H   GLY A   5      19.240  61.405  15.281  0.00  0.00    +0.150 HD
ATOM     15  O   ALA A   4      17.100  61.600  12.944  0.00  0.00    -0.273 OA
BRANCH  13  16
ATOM     16  CA  GLY A   5      18.142  63.203  14.810  0.00  0.00    +0.163 C 
BRANCH  16  17
ATOM     17  C   GLY A   5      17.686  63.467  16.231  0.00  0.00    +0.229 C 
ATOM     18  O   GLY A   5      18.099  62.774  17.162  0.00  0.00    -0.286 OA
ENDBRANCH  16  17
ENDBRANCH  13  16
ENDBRANCH  10  12
ENDBRANCH   8  10
ENDBRANCH   5   6
BRANCH   5  19
ATOM     19  CB  CYS A   3      14.909  56.966  13.205  0.00  0.00    +0.098 C 
ATOM     20  SG  CYS A   3      13.583  55.913  12.533  0.00  0.00    -0.080 S 
ENDBRANCH   5  19
ENDBRANCH   2   5
BRANCH   1  21
ATOM     21  CA  PHE A   2      16.934  53.715  10.461  0.00  0.00    +0.153 C 
BRANCH  21  24
ATOM     22  C   MET A   1      16.044  52.367   8.664  0.00  0.00    +0.238 C 
ATOM     23  O   MET A   1      15.942  51.387   9.403  0.00  0.00    -0.274 OA
ATOM     24  N   PHE A   2      16.586  53.510   9.054  0.00  0.00    -0.297 N 
ATOM     25  H   PHE A   2      16.765  54.263   8.360  0.00  0.00    +0.150 HD
BRANCH  22  26
ATOM     26  CA  MET A   1      15.537  52.313   7.242  0.00  0.00    +0.146 C 
BRANCH  26  27
ATOM     27  N   MET A   1      15.468  50.927   6.786  0.00  0.00    -0.238 NA
ATOM     28  H   MET A   1      14.957  50.243   7.379  0.00  0.00    +0.142 HD
ENDBRANCH  26  27
BRANCH  26  29
ATOM     29  CB  MET A   1      14.129  52.927   7.303  0.00  0.00    +0.038 C 
BRANCH  29  30
ATOM     30  CG  MET A   1      13.337  52.883   5.996  0.00  0.00    +0.060 C 
BRANCH  30  31
ATOM     31  SD  MET A   1      11.630  53.420   6.194  0.00  0.00    -0.139 S 
ATOM     32  CE  MET A   1      10.941  52.855   4.552  0.00  0.00    +0.069 C 
ENDBRANCH  30  31
ENDBRANCH  29  30
ENDBRANCH  26  29
ENDBRANCH  22  26
ENDBRANCH  21  24
BRANCH  21  33
ATOM     33  CB  PHE A   2      18.374  53.376  10.815  0.00  0.00    +0.055 C 
BRANCH  33  34
ATOM     34  CG  PHE A   2      19.388  54.291  10.232  0.00  0.00    -0.020 A 
ATOM     35  CD2 PHE A   2      19.811  55.412  10.935  0.00  0.00    -0.004 A 
ATOM     36  CE2 PHE A   2      20.828  56.213  10.424  0.00  0.00    -0.000 A 
ATOM     37  CZ  PHE A   2      21.425  55.884   9.210  0.00  0.00    -0.000 A 
ATOM     38  CE1 PHE A   2      20.999  54.768   8.504  0.00  0.00    -0.000 A 
ATOM     39  CD1 PHE A   2      19.981  53.982   9.016  0.00  0.00    -0.004 A 
ENDBRANCH  33  34
ENDBRANCH  21  33
ENDBRANCH   1  21
TORSDOF 16
REMARK  Name = ../refined-set-2016/2xbx/2xbx_pocket.pdb
REMARK  221 active torsions:
REMARK  status: ('A' for Active; 'I' for Inactive)
REMARK    1  A    between atoms: _1  and  _3
REMARK    2  A    between atoms: _3  and  _4
REMARK    3  A    between atoms: _3  and  _6
REMARK    4  A    between atoms: _9  and  _11
REMARK    5  A    between atoms: _11  and  _12
REMARK    6  A    between atoms: _11  and  _14
REMARK    7  A    between atoms: _14  and  _15
REMARK    8  A    between atoms: _20  and  _22
REMARK    9  A    between atoms: _22  and  _23
REMARK   10  A    between atoms: _22  and  _25
REMARK   11  A    between atoms: _25  and  _26
REMARK   12  A    between atoms: _26  and  _27
REMARK   13  A    between atoms: _32  and  _34
REMARK   14  A    between atoms: _34  and  _35
REMARK   15  A    between atoms: _34  and  _37
REMARK   16  A    between atoms: _37  and  _38
REMARK   17  A    between atoms: _44  and  _46
REMARK   18  A    between atoms: _46  and  _47
REMARK   19  A    between atoms: _46  and  _49
REMARK   20  A    between atoms: _49  and  _50
REMARK   21  A    between atoms: _53  and  _55
REMARK   22  A    between atoms: _55  and  _56
REMARK   23  A    between atoms: _55  and  _58
REMARK   24  A    between atoms: _58  and  _59
REMARK   25  A    between atoms: _59  and  _60
REMARK   26  A    between atoms: _60  and  _61
REMARK   27  A    between atoms: _61  and  _62
REMARK   28  A    between atoms: _66  and  _68
REMARK   29  A    between atoms: _68  and  _69
REMARK   30  A    between atoms: _68  and  _71
REMARK   31  A    between atoms: _71  and  _72
REMARK   32  A    between atoms: _72  and  _73
REMARK   33  A    between atoms: _76  and  _78
REMARK   34  A    between atoms: _78  and  _79
REMARK   35  A    between atoms: _78  and  _81
REMARK   36  A    between atoms: _81  and  _82
REMARK   37  A    between atoms: _85  and  _87
REMARK   38  A    between atoms: _87  and  _88
REMARK   39  A    between atoms: _87  and  _90
REMARK   40  A    between atoms: _90  and  _91
REMARK   41  A    between atoms: _96  and  _97
REMARK   42  A    between atoms: _99  and  _101
REMARK   43  A    between atoms: _101  and  _102
REMARK   44  A    between atoms: _101  and  _104
REMARK   45  A    between atoms: _104  and  _105
REMARK   46  A    between atoms: _108  and  _110
REMARK   47  A    between atoms: _110  and  _111
REMARK   48  A    between atoms: _110  and  _113
REMARK   49  A    between atoms: _113  and  _114
REMARK   50  A    between atoms: _117  and  _119
REMARK   51  A    between atoms: _119  and  _120
REMARK   52  A    between atoms: _119  and  _122
REMARK   53  A    between atoms: _125  and  _127
REMARK   54  A    between atoms: _127  and  _128
REMARK   55  A    between atoms: _127  and  _130
REMARK   56  A    between atoms: _130  and  _131
REMARK   57  A    between atoms: _131  and  _132
REMARK   58  A    between atoms: _132  and  _133
REMARK   59  A    between atoms: _142  and  _144
REMARK   60  A    between atoms: _144  and  _145
REMARK   61  A    between atoms: _144  and  _147
REMARK   62  A    between atoms: _147  and  _148
REMARK   63  A    between atoms: _153  and  _155
REMARK   64  A    between atoms: _155  and  _156
REMARK   65  A    between atoms: _155  and  _158
REMARK   66  A    between atoms: _158  and  _159
REMARK   67  A    between atoms: _159  and  _160
REMARK   68  A    between atoms: _163  and  _165
REMARK   69  A    between atoms: _165  and  _166
REMARK   70  A    between atoms: _165  and  _168
REMARK   71  A    between atoms: _168  and  _169
REMARK   72  A    between atoms: _169  and  _170
REMARK   73  A    between atoms: _170  and  _171
REMARK   74  A    between atoms: _171  and  _172
REMARK   75  A    between atoms: _176  and  _178
REMARK   76  A    between atoms: _178  and  _179
REMARK   77  A    between atoms: _181  and  _183
REMARK   78  A    between atoms: _183  and  _184
REMARK   79  A    between atoms: _183  and  _186
REMARK   80  A    between atoms: _189  and  _191
REMARK   81  A    between atoms: _191  and  _192
REMARK   82  A    between atoms: _191  and  _194
REMARK   83  A    between atoms: _194  and  _195
REMARK   84  A    between atoms: _197  and  _199
REMARK   85  A    between atoms: _199  and  _200
REMARK   86  A    between atoms: _199  and  _202
REMARK   87  A    between atoms: _202  and  _203
REMARK   88  A    between atoms: _205  and  _207
REMARK   89  A    between atoms: _207  and  _208
REMARK   90  A    between atoms: _207  and  _210
REMARK   91  A    between atoms: _210  and  _211
REMARK   92  A    between atoms: _217  and  _219
REMARK   93  A    between atoms: _219  and  _220
REMARK   94  A    between atoms: _219  and  _222
REMARK   95  A    between atoms: _222  and  _223
REMARK   96  A    between atoms: _226  and  _228
REMARK   97  A    between atoms: _228  and  _229
REMARK   98  A    between atoms: _228  and  _231
REMARK   99  A    between atoms: _231  and  _232
REMARK  100  A    between atoms: _235  and  _237
REMARK  101  A    between atoms: _237  and  _238
REMARK  102  A    between atoms: _237  and  _240
REMARK  103  A    between atoms: _240  and  _241
REMARK  104  A    between atoms: _244  and  _246
REMARK  105  A    between atoms: _246  and  _247
REMARK  106  A    between atoms: _246  and  _249
REMARK  107  A    between atoms: _249  and  _250
REMARK  108  A    between atoms: _250  and  _251
REMARK  109  A    between atoms: _253  and  _255
REMARK  110  A    between atoms: _255  and  _256
REMARK  111  A    between atoms: _255  and  _258
REMARK  112  A    between atoms: _258  and  _259
REMARK  113  A    between atoms: _265  and  _267
REMARK  114  A    between atoms: _267  and  _268
REMARK  115  A    between atoms: _267  and  _270
REMARK  116  A    between atoms: _272  and  _274
REMARK  117  A    between atoms: _274  and  _275
REMARK  118  A    between atoms: _278  and  _280
REMARK  119  A    between atoms: _280  and  _281
REMARK  120  A    between atoms: _283  and  _285
REMARK  121  A    between atoms: _285  and  _286
REMARK  122  A    between atoms: _285  and  _288
REMARK  123  A    between atoms: _288  and  _289
REMARK  124  A    between atoms: _289  and  _290
REMARK  125  A    between atoms: _293  and  _295
REMARK  126  A    between atoms: _295  and  _296
REMARK  127  A    between atoms: _295  and  _298
REMARK  128  A    between atoms: _298  and  _299
REMARK  129  A    between atoms: _302  and  _304
REMARK  130  A    between atoms: _304  and  _305
REMARK  131  A    between atoms: _308  and  _310
REMARK  132  A    between atoms: _310  and  _311
REMARK  133  A    between atoms: _310  and  _313
REMARK  134  A    between atoms: _313  and  _314
REMARK  135  A    between atoms: _314  and  _437
REMARK  136  A    between atoms: _315  and  _317
REMARK  137  A    between atoms: _317  and  _318
REMARK  138  A    between atoms: _317  and  _320
REMARK  139  A    between atoms: _320  and  _321
REMARK  140  A    between atoms: _321  and  _322
REMARK  141  A    between atoms: _327  and  _329
REMARK  142  A    between atoms: _329  and  _330
REMARK  143  A    between atoms: _332  and  _334
REMARK  144  A    between atoms: _334  and  _335
REMARK  145  A    between atoms: _334  and  _337
REMARK  146  A    between atoms: _337  and  _338
REMARK  147  A    between atoms: _341  and  _343
REMARK  148  A    between atoms: _343  and  _344
REMARK  149  A    between atoms: _343  and  _346
REMARK  150  A    between atoms: _346  and  _347
REMARK  151  A    between atoms: _349  and  _351
REMARK  152  A    between atoms: _351  and  _352
REMARK  153  A    between atoms: _354  and  _356
REMARK  154  A    between atoms: _356  and  _357
REMARK  155  A    between atoms: _359  and  _361
REMARK  156  A    between atoms: _361  and  _362
REMARK  157  A    between atoms: _361  and  _364
REMARK  158  A    between atoms: _364  and  _365
REMARK  159  A    between atoms: _370  and  _372
REMARK  160  A    between atoms: _372  and  _373
REMARK  161  A    between atoms: _372  and  _375
REMARK  162  A    between atoms: _375  and  _376
REMARK  163  A    between atoms: _379  and  _381
REMARK  164  A    between atoms: _381  and  _382
REMARK  165  A    between atoms: _381  and  _384
REMARK  166  A    between atoms: _387  and  _389
REMARK  167  A    between atoms: _389  and  _390
REMARK  168  A    between atoms: _389  and  _392
REMARK  169  A    between atoms: _392  and  _393
REMARK  170  A    between atoms: _395  and  _397
REMARK  171  A    between atoms: _397  and  _398
REMARK  172  A    between atoms: _397  and  _400
REMARK  173  A    between atoms: _400  and  _401
REMARK  174  A    between atoms: _411  and  _413
REMARK  175  A    between atoms: _413  and  _414
REMARK  176  A    between atoms: _416  and  _418
REMARK  177  A    between atoms: _418  and  _419
REMARK  178  A    between atoms: _418  and  _421
REMARK  179  A    between atoms: _421  and  _422
REMARK  180  A    between atoms: _422  and  _423
REMARK  181  A    between atoms: _426  and  _428
REMARK  182  A    between atoms: _428  and  _429
REMARK  183  A    between atoms: _431  and  _433
REMARK  184  A    between atoms: _433  and  _434
REMARK  185  A    between atoms: _433  and  _436
REMARK  186  A    between atoms: _436  and  _437
REMARK  187  A    between atoms: _438  and  _440
REMARK  188  A    between atoms: _440  and  _441
REMARK  189  A    between atoms: _444  and  _446
REMARK  190  A    between atoms: _446  and  _447
REMARK  191  A    between atoms: _446  and  _449
REMARK  192  A    between atoms: _449  and  _450
REMARK  193  A    between atoms: _450  and  _451
REMARK  194  A    between atoms: _451  and  _452
REMARK  195  A    between atoms: _461  and  _463
REMARK  196  A    between atoms: _463  and  _464
REMARK  197  A    between atoms: _463  and  _466
REMARK  198  A    between atoms: _466  and  _467
REMARK  199  A    between atoms: _467  and  _468
REMARK  200  A    between atoms: _468  and  _469
REMARK  201  A    between atoms: _469  and  _470
REMARK  202  A    between atoms: _474  and  _476
REMARK  203  A    between atoms: _476  and  _477
REMARK  204  A    between atoms: _476  and  _479
REMARK  205  A    between atoms: _479  and  _480
REMARK  206  A    between atoms: _485  and  _486
REMARK  207  A    between atoms: _488  and  _490
REMARK  208  A    between atoms: _490  and  _491
REMARK  209  A    between atoms: _493  and  _495
REMARK  210  A    between atoms: _495  and  _496
REMARK  211  A    between atoms: _495  and  _498
REMARK  212  A    between atoms: _498  and  _499
REMARK  213  A    between atoms: _502  and  _504
REMARK  214  A    between atoms: _504  and  _505
REMARK  215  A    between atoms: _504  and  _507
REMARK  216  A    between atoms: _507  and  _508
REMARK  217  A    between atoms: _513  and  _514
REMARK  218  A    between atoms: _516  and  _518
REMARK  219  A    between atoms: _518  and  _519
REMARK  220  A    between atoms: _518  and  _521
REMARK  221  A    between atoms: _521  and  _522
REMARK                            x       y       z     vdW  Elec       q    Type
REMARK                         _______ _______ _______ _____ _____    ______ ____
ROOT
ATOM      1  CA  SER A   8      11.992  69.110   8.947  0.00  0.00    +0.160 C 
ENDROOT
BRANCH   1   2
ATOM      2  C   SER A   8      12.105  69.651  10.351  0.00  0.00    +0.242 C 
ATOM      3  N   GLY A   9      12.844  68.946  11.206  0.00  0.00    -0.297 N 
ATOM      4  H   GLY A   9      13.292  68.070  10.869  0.00  0.00    +0.150 HD
ATOM      5  O   SER A   8      11.503  70.678  10.651  0.00  0.00    -0.273 OA
BRANCH   3   6
ATOM      6  CA  GLY A   9      13.054  69.345  12.591  0.00  0.00    +0.149 C 
ATOM      7  CB  GLY A   9      13.859  70.671  12.636  0.00  0.00    +0.031 C 
BRANCH   6   8
ATOM      8  C   GLY A   9      11.780  69.479  13.423  0.00  0.00    +0.241 C 
ATOM      9  O   GLY A   9      11.775  70.178  14.445  0.00  0.00    -0.273 OA
ATOM     10  N   GLY A  10      10.706  68.812  13.009  0.00  0.00    -0.298 N 
ATOM     11  H   GLY A  10      10.758  68.218  12.157  0.00  0.00    +0.150 HD
BRANCH  10  12
ATOM     12  CA  GLY A  10       9.469  68.914  13.744  0.00  0.00    +0.137 C 
BRANCH  12  13
ATOM     13  C   GLY A  10       9.558  68.227  15.102  0.00  0.00    +0.227 C 
ATOM     14  O   GLY A  10      10.156  67.155  15.250  0.00  0.00    -0.286 OA
ENDBRANCH  12  13
BRANCH  12  15
ATOM     15  CB  GLY A  10       8.305  68.313  12.941  0.00  0.00    +0.031 C 
BRANCH  15  16
ATOM     16  CG  GLY A  10       7.889  69.139  11.736  0.00  0.00    +0.045 C 
BRANCH  16  17
ATOM     17  CD  GLY A  10       6.501  68.764  11.268  0.00  0.00    +0.174 C 
BRANCH  17  18
ATOM     18  NE  GLY A  10       6.175  69.367   9.975  0.00  0.00    -0.265 N 
ATOM     19  HE  GLY A  10       6.771  70.148   9.633  0.00  0.00    +0.259 HD
ATOM     20  CZ  GLY A  10       5.162  68.974   9.214  0.00  0.00    +0.342 C 
ATOM     21  NH2 GLY A  10       4.374  67.984   9.625  0.00  0.00    -0.292 N 
ATOM     22 HH21 GLY A  10       4.553  67.522  10.539  0.00  0.00    +0.255 HD
ATOM     23 HH22 GLY A  10       3.579  67.672   9.032  0.00  0.00    +0.255 HD
ATOM     24  NH1 GLY A  10       4.950  69.544   8.031  0.00  0.00    -0.292 N 
ATOM     25 HH11 GLY A  10       5.580  70.302   7.699  0.00  0.00    +0.255 HD
ATOM     26 HH12 GLY A  10       4.154  69.232   7.439  0.00  0.00    +0.255 HD
ENDBRANCH  17  18
ENDBRANCH  16  17
ENDBRANCH  15  16
ENDBRANCH  12  15
ENDBRANCH  10  12
ENDBRANCH   6   8
ENDBRANCH   3   6
ENDBRANCH   1   2
BRANCH   1  27
ATOM     27  N   SER A   8      10.559  69.062   8.671  0.00  0.00    -0.296 N 
ATOM     28  H   SER A   8       9.951  69.826   9.030  0.00  0.00    +0.150 HD
ATOM     29  C   ASP A   7      10.008  68.077   7.978  0.00  0.00    +0.243 C 
ATOM     30  O   ASP A   7      10.680  67.165   7.488  0.00  0.00    -0.273 OA
BRANCH  29  31
ATOM     31  CA  ASP A   7       8.490  68.123   7.804  0.00  0.00    +0.176 C 
BRANCH  31  32
ATOM     32  N   ASP A   7       8.047  66.761   7.564  0.00  0.00    -0.295 N 
ATOM     33  C   GLY A   6       7.960  65.899   8.571  0.00  0.00    +0.241 C 
ATOM     34  O   GLY A   6       8.204  66.184   9.730  0.00  0.00    -0.273 OA
ATOM     35  H   ASP A   7       7.797  66.459   6.601  0.00  0.00    +0.150 HD
BRANCH  33  36
ATOM     36  CA  GLY A   6       7.574  64.494   8.189  0.00  0.00    +0.149 C 
BRANCH  36  37
ATOM     37  N   GLY A   6       8.882  63.781   8.188  0.00  0.00    -0.297 N 
ATOM     38  H   GLY A   6       9.203  63.306   9.056  0.00  0.00    +0.150 HD
ATOM     39  C   GLN A   5       9.649  63.738   7.101  0.00  0.00    +0.243 C 
ATOM     40  O   GLN A   5       9.330  64.247   6.025  0.00  0.00    -0.273 OA
BRANCH  39  41
ATOM     41  CA  GLN A   5      10.981  62.988   7.218  0.00  0.00    +0.176 C 
BRANCH  41  42
ATOM     42  N   GLN A   5      11.374  62.588   5.890  0.00  0.00    -0.295 N 
ATOM     43  C   TRP A   4      12.340  61.696   5.721  0.00  0.00    +0.241 C 
ATOM     44  O   TRP A   4      12.984  61.213   6.660  0.00  0.00    -0.273 OA
ATOM     45  H   GLN A   5      10.898  63.000   5.062  0.00  0.00    +0.150 HD
BRANCH  43  46
ATOM     46  CA  TRP A   4      12.618  61.321   4.291  0.00  0.00    +0.153 C 
BRANCH  46  47
ATOM     47  N   TRP A   4      13.850  60.557   4.131  0.00  0.00    -0.297 N 
ATOM     48  H   TRP A   4      14.300  60.090   4.944  0.00  0.00    +0.150 HD
ATOM     49  C   SER A   3      14.378  60.476   2.921  0.00  0.00    +0.243 C 
ATOM     50  O   SER A   3      13.890  61.068   1.965  0.00  0.00    -0.273 OA
BRANCH  49  51
ATOM     51  CA  SER A   3      15.640  59.644   2.755  0.00  0.00    +0.178 C 
BRANCH  51  52
ATOM     52  N   SER A   3      16.789  60.123   3.509  0.00  0.00    -0.295 N 
ATOM     53  H   SER A   3      16.767  60.147   4.549  0.00  0.00    +0.150 HD
ATOM     54  C   VAL A   2      17.865  60.529   2.847  0.00  0.00    +0.241 C 
ATOM     55  O   VAL A   2      17.892  60.603   1.626  0.00  0.00    -0.273 OA
BRANCH  54  56
ATOM     56  CA  VAL A   2      19.096  60.922   3.679  0.00  0.00    +0.148 C 
BRANCH  56  57
ATOM     57  N   VAL A   2      20.188  60.043   3.240  0.00  0.00    -0.297 N 
ATOM     58  C   ILE A   1      20.074  58.716   3.250  0.00  0.00    +0.238 C 
ATOM     59  O   ILE A   1      19.075  58.137   3.687  0.00  0.00    -0.274 OA
ATOM     60  H   VAL A   2      21.078  60.470   2.911  0.00  0.00    +0.150 HD
BRANCH  58  61
ATOM     61  CA  ILE A   1      21.251  57.898   2.728  0.00  0.00    +0.145 C 
BRANCH  61  62
ATOM     62  N   ILE A   1      21.550  57.027   3.848  0.00  0.00    -0.238 NA
ATOM     63  H   ILE A   1      20.779  56.449   4.240  0.00  0.00    +0.142 HD
ENDBRANCH  61  62
BRANCH  61  64
ATOM     64  CB  ILE A   1      20.783  57.061   1.465  0.00  0.00    +0.025 C 
ATOM     65  CG2 ILE A   1      20.334  58.022   0.298  0.00  0.00    +0.002 C 
BRANCH  64  66
ATOM     66  CG1 ILE A   1      21.900  56.104   1.024  0.00  0.00    +0.002 C 
ATOM     67  CD1 ILE A   1      21.442  55.094  -0.055  0.00  0.00    +0.000 C 
ENDBRANCH  64  66
ENDBRANCH  61  64
ENDBRANCH  58  61
ENDBRANCH  56  57
BRANCH  56  68
ATOM     68  CB  VAL A   2      19.448  62.402   3.415  0.00  0.00    +0.027 C 
ATOM     69  CG2 VAL A   2      20.760  62.738   4.135  0.00  0.00    +0.002 C 
ATOM     70  CG1 VAL A   2      18.311  63.313   3.924  0.00  0.00    +0.002 C 
ENDBRANCH  56  68
ENDBRANCH  54  56
ENDBRANCH  51  52
BRANCH  51  71
ATOM     71  CB  SER A   3      15.356  58.185   3.147  0.00  0.00    +0.166 C 
BRANCH  71  72
ATOM     72  OG  SER A   3      14.325  57.618   2.334  0.00  0.00    -0.380 OA
ATOM     73  H   SER A   3      14.166  56.681   2.611  0.00  0.00    +0.211 HD
ENDBRANCH  71  72
ENDBRANCH  51  71
ENDBRANCH  49  51
ENDBRANCH  46  47
BRANCH  46  74
ATOM     74  CB  TRP A   4      11.401  60.510   3.764  0.00  0.00    +0.057 C 
BRANCH  74  75
ATOM     75  CG  TRP A   4      11.183  59.191   4.493  0.00  0.00    -0.002 A 
ATOM     76  CD2 TRP A   4      10.285  58.957   5.587  0.00  0.00    +0.013 A 
ATOM     77  CE3 TRP A   4       9.450  59.790   6.356  0.00  0.00    +0.001 A 
ATOM     78  CZ3 TRP A   4       8.666  59.205   7.352  0.00  0.00    +0.000 A 
ATOM     79  CH2 TRP A   4       8.716  57.822   7.583  0.00  0.00    +0.001 A 
ATOM     80  CZ2 TRP A   4       9.524  56.993   6.855  0.00  0.00    +0.017 A 
ATOM     81  CE2 TRP A   4      10.305  57.572   5.857  0.00  0.00    +0.056 A 
ATOM     82  NE1 TRP A   4      11.180  56.990   4.978  0.00  0.00    -0.352 N 
ATOM     83  HE1 TRP A   4      11.408  55.976   4.931  0.00  0.00    +0.166 HD
ATOM     84  CD1 TRP A   4      11.711  57.975   4.162  0.00  0.00    +0.068 A 
ENDBRANCH  74  75
ENDBRANCH  46  74
ENDBRANCH  43  46
ENDBRANCH  41  42
ENDBRANCH  39  41
ENDBRANCH  36  37
BRANCH  36  85
ATOM     85  CB  GLY A   6       6.632  63.865   9.206  0.00  0.00    +0.041 C 
BRANCH  85  86
ATOM     86  CG  GLY A   6       6.379  62.431   8.856  0.00  0.00    +0.116 C 
BRANCH  86  87
ATOM     87  CD  GLY A   6       5.319  61.780   9.725  0.00  0.00    +0.365 C 
ATOM     88  OE2 GLY A   6       5.629  60.748  10.337  0.00  0.00    -0.246 OA
ATOM     89  OE1 GLY A   6       4.185  62.299   9.784  0.00  0.00    -0.246 OA
ENDBRANCH  86  87
ENDBRANCH  85  86
ENDBRANCH  36  85
ENDBRANCH  33  36
ENDBRANCH  31  32
ENDBRANCH  29  31
ENDBRANCH   1  27
BRANCH   1  90
ATOM     90  CB  SER A   8      12.697  70.060   7.973  0.00  0.00    +0.098 C 
BRANCH  90  91
ATOM     91  SG  SER A   8      12.575  69.478   6.269  0.00  0.00    -0.080 S 
BRANCH  91  92
ATOM     92  SG  TRP A   4      13.774  70.793   5.286  0.00  0.00    -0.080 S 
BRANCH  92  93
ATOM     93  CB  TRP A   4      15.465  70.125   5.498  0.00  0.00    +0.098 C 
BRANCH  93  94
ATOM     94  CA  TRP A   4      15.626  68.623   5.187  0.00  0.00    +0.160 C 
BRANCH  94  97
ATOM     95  C   SER A   3      16.925  67.743   7.019  0.00  0.00    +0.241 C 
ATOM     96  O   SER A   3      15.937  67.808   7.773  0.00  0.00    -0.273 OA
ATOM     97  N   TRP A   4      16.871  68.130   5.748  0.00  0.00    -0.296 N 
ATOM     98  H   TRP A   4      17.723  68.079   5.154  0.00  0.00    +0.150 HD
BRANCH  95  99
ATOM     99  CA  SER A   3      18.272  67.239   7.562  0.00  0.00    +0.149 C 
ATOM    100  CB  SER A   3      18.644  65.863   6.978  0.00  0.00    +0.031 C 
BRANCH  99 103
ATOM    101  C   VAL A   2      18.062  68.159   9.765  0.00  0.00    +0.241 C 
ATOM    102  O   VAL A   2      18.480  69.262   9.376  0.00  0.00    -0.273 OA
ATOM    103  N   SER A   3      17.979  67.109   8.975  0.00  0.00    -0.297 N 
ATOM    104  H   SER A   3      17.703  66.186   9.366  0.00  0.00    +0.150 HD
BRANCH 101 105
ATOM    105  CA  VAL A   2      17.611  67.940  11.202  0.00  0.00    +0.160 C 
BRANCH 105 108
ATOM    106  C   ILE A   1      17.803  69.113  13.283  0.00  0.00    +0.238 C 
ATOM    107  O   ILE A   1      17.313  68.165  13.892  0.00  0.00    -0.274 OA
ATOM    108  N   VAL A   2      18.025  69.095  11.977  0.00  0.00    -0.297 N 
ATOM    109  H   VAL A   2      18.491  69.900  11.512  0.00  0.00    +0.150 HD
BRANCH 106 110
ATOM    110  CA  ILE A   1      18.203  70.358  14.030  0.00  0.00    +0.145 C 
BRANCH 110 111
ATOM    111  N   ILE A   1      17.089  70.706  14.914  0.00  0.00    -0.238 NA
ATOM    112  H   ILE A   1      16.595  69.947  15.425  0.00  0.00    +0.142 HD
ENDBRANCH 110 111
BRANCH 110 113
ATOM    113  CB  ILE A   1      19.466  70.090  14.829  0.00  0.00    +0.038 C 
BRANCH 113 114
ATOM    114  CG  ILE A   1      20.001  71.322  15.524  0.00  0.00    +0.116 C 
BRANCH 114 115
ATOM    115  CD  ILE A   1      21.464  71.197  15.861  0.00  0.00    +0.365 C 
ATOM    116  OE2 ILE A   1      21.806  70.262  16.620  0.00  0.00    -0.246 OA
ATOM    117  OE1 ILE A   1      22.279  72.021  15.375  0.00  0.00    -0.246 OA
ENDBRANCH 114 115
ENDBRANCH 113 114
ENDBRANCH 110 113
ENDBRANCH 106 110
ENDBRANCH 105 108
BRANCH 105 118
ATOM    118  CB  VAL A   2      16.063  67.879  11.268  0.00  0.00    +0.143 C 
BRANCH 118 119
ATOM    119  CG  VAL A   2      15.456  66.565  10.752  0.00  0.00    +0.367 C 
ATOM    120  OD2 VAL A   2      14.196  66.561  10.561  0.00  0.00    -0.246 OA
ATOM    121  OD1 VAL A   2      16.176  65.548  10.551  0.00  0.00    -0.246 OA
ENDBRANCH 118 119
ENDBRANCH 105 118
ENDBRANCH 101 105
ENDBRANCH  99 103
ENDBRANCH  95  99
ENDBRANCH  94  97
BRANCH  94 122
ATOM    122  C   TRP A   4      15.605  68.373   3.695  0.00  0.00    +0.242 C 
ATOM    123  O   TRP A   4      16.559  67.809   3.128  0.00  0.00    -0.273 OA
ATOM    124  N   GLN A   5      14.509  68.782   3.056  0.00  0.00    -0.297 N 
ATOM    125  H   GLN A   5      13.748  69.236   3.600  0.00  0.00    +0.150 HD
BRANCH 124 126
ATOM    126  CA  GLN A   5      14.346  68.612   1.618  0.00  0.00    +0.149 C 
BRANCH 126 127
ATOM    127  C   GLN A   5      15.553  69.260   0.935  0.00  0.00    +0.241 C 
ATOM    128  O   GLN A   5      15.964  70.363   1.308  0.00  0.00    -0.273 OA
ATOM    129  N   GLY A   6      16.120  68.574  -0.052  0.00  0.00    -0.295 N 
ATOM    130  H   GLY A   6      15.732  67.653  -0.340  0.00  0.00    +0.150 HD
BRANCH 129 131
ATOM    131  CA  GLY A   6      17.283  69.119  -0.725  0.00  0.00    +0.176 C 
BRANCH 131 132
ATOM    132  C   GLY A   6      18.523  68.383  -0.262  0.00  0.00    +0.243 C 
ATOM    133  N   ASP A   7      18.480  67.861   0.965  0.00  0.00    -0.296 N 
ATOM    134  H   ASP A   7      17.634  68.016   1.550  0.00  0.00    +0.150 HD
ATOM    135  O   GLY A   6      19.516  68.318  -0.994  0.00  0.00    -0.273 OA
BRANCH 133 136
ATOM    136  CA  ASP A   7      19.588  67.076   1.512  0.00  0.00    +0.160 C 
BRANCH 136 137
ATOM    137  C   ASP A   7      19.378  65.619   1.101  0.00  0.00    +0.241 C 
ATOM    138  O   ASP A   7      20.309  64.841   1.140  0.00  0.00    -0.273 OA
ATOM    139  N   SER A   8      18.134  65.272   0.769  0.00  0.00    -0.295 N 
ATOM    140  H   SER A   8      17.381  65.988   0.818  0.00  0.00    +0.150 HD
BRANCH 139 141
ATOM    141  CA  SER A   8      17.794  63.907   0.336  0.00  0.00    +0.178 C 
BRANCH 141 142
ATOM    142  C   SER A   8      18.809  63.311  -0.657  0.00  0.00    +0.243 C 
ATOM    143  N   GLY A   9      19.150  62.042  -0.444  0.00  0.00    -0.295 N 
ATOM    144  H   GLY A   9      18.726  61.536   0.360  0.00  0.00    +0.150 HD
ATOM    145  O   SER A   8      19.247  63.987  -1.602  0.00  0.00    -0.273 OA
BRANCH 143 146
ATOM    146  CA  GLY A   9      20.099  61.337  -1.301  0.00  0.00    +0.176 C 
BRANCH 146 147
ATOM    147  C   GLY A   9      21.524  61.480  -0.820  0.00  0.00    +0.243 C 
ATOM    148  N   GLY A  10      21.730  62.490   0.019  0.00  0.00    -0.296 N 
ATOM    149  H   GLY A  10      20.917  63.081   0.286  0.00  0.00    +0.150 HD
ATOM    150  O   GLY A   9      22.394  60.694  -1.210  0.00  0.00    -0.273 OA
BRANCH 148 151
ATOM    151  CA  GLY A  10      23.031  62.813   0.584  0.00  0.00    +0.163 C 
BRANCH 151 152
ATOM    152  C   GLY A  10      23.558  61.822   1.602  0.00  0.00    +0.229 C 
ATOM    153  O   GLY A  10      22.888  60.872   2.025  0.00  0.00    -0.286 OA
ENDBRANCH 151 152
ENDBRANCH 148 151
ENDBRANCH 146 147
ENDBRANCH 143 146
ENDBRANCH 141 142
BRANCH 141 154
ATOM    154  CB  SER A   8      16.412  63.912  -0.311  0.00  0.00    +0.166 C 
BRANCH 154 155
ATOM    155  OG  SER A   8      15.589  64.873   0.328  0.00  0.00    -0.380 OA
ATOM    156  H   SER A   8      15.998  65.770   0.236  0.00  0.00    +0.211 HD
ENDBRANCH 154 155
ENDBRANCH 141 154
ENDBRANCH 139 141
ENDBRANCH 136 137
BRANCH 136 157
ATOM    157  CB  ASP A   7      19.626  67.091   3.038  0.00  0.00    +0.143 C 
BRANCH 157 158
ATOM    158  CG  ASP A   7      19.962  68.469   3.590  0.00  0.00    +0.367 C 
ATOM    159  OD2 ASP A   7      19.330  68.895   4.586  0.00  0.00    -0.246 OA
ATOM    160  OD1 ASP A   7      20.859  69.090   2.991  0.00  0.00    -0.246 OA
ENDBRANCH 157 158
ENDBRANCH 136 157
ENDBRANCH 133 136
ENDBRANCH 131 132
ENDBRANCH 129 131
ENDBRANCH 126 127
BRANCH 126 161
ATOM    161  CB  GLN A   5      13.072  69.305   1.170  0.00  0.00    +0.039 C 
BRANCH 161 162
ATOM    162  CG  GLN A   5      12.882  69.320  -0.325  0.00  0.00    +0.087 C 
BRANCH 162 163
ATOM    163  CD  GLN A   5      11.428  69.393  -0.679  0.00  0.00    +0.219 C 
ATOM    164  OE1 GLN A   5      10.740  68.362  -0.761  0.00  0.00    -0.275 OA
ATOM    165  NE2 GLN A   5      10.925  70.613  -0.848  0.00  0.00    -0.329 N 
ATOM    166 HE21 GLN A   5      11.543  71.446  -0.769  0.00  0.00    +0.145 HD
ATOM    167 HE22 GLN A   5       9.914  70.734  -1.059  0.00  0.00    +0.145 HD
ENDBRANCH 162 163
ENDBRANCH 161 162
ENDBRANCH 126 161
ENDBRANCH 124 126
ENDBRANCH  94 122
ENDBRANCH  93  94
ENDBRANCH  92  93
ENDBRANCH  91  92
ENDBRANCH  90  91
ENDBRANCH   1  90
TORSDOF 71
REMARK  Name = ../refined-set-2016/2xbx/2xbx_pocket.pdb
REMARK  221 active torsions:
REMARK  status: ('A' for Active; 'I' for Inactive)
REMARK    1  A    between atoms: _1  and  _3
REMARK    2  A    between atoms: _3  and  _4
REMARK    3  A    between atoms: _3  and  _6
REMARK    4  A    between atoms: _9  and  _11
REMARK    5  A    between atoms: _11  and  _12
REMARK    6  A    between atoms: _11  and  _14
REMARK    7  A    between atoms: _14  and  _15
REMARK    8  A    between atoms: _20  and  _22
REMARK    9  A    between atoms: _22  and  _23
REMARK   10  A    between atoms: _22  and  _25
REMARK   11  A    between atoms: _25  and  _26
REMARK   12  A    between atoms: _26  and  _27
REMARK   13  A    between atoms: _32  and  _34
REMARK   14  A    between atoms: _34  and  _35
REMARK   15  A    between atoms: _34  and  _37
REMARK   16  A    between atoms: _37  and  _38
REMARK   17  A    between atoms: _44  and  _46
REMARK   18  A    between atoms: _46  and  _47
REMARK   19  A    between atoms: _46  and  _49
REMARK   20  A    between atoms: _49  and  _50
REMARK   21  A    between atoms: _53  and  _55
REMARK   22  A    between atoms: _55  and  _56
REMARK   23  A    between atoms: _55  and  _58
REMARK   24  A    between atoms: _58  and  _59
REMARK   25  A    between atoms: _59  and  _60
REMARK   26  A    between atoms: _60  and  _61
REMARK   27  A    between atoms: _61  and  _62
REMARK   28  A    between atoms: _66  and  _68
REMARK   29  A    between atoms: _68  and  _69
REMARK   30  A    between atoms: _68  and  _71
REMARK   31  A    between atoms: _71  and  _72
REMARK   32  A    between atoms: _72  and  _73
REMARK   33  A    between atoms: _76  and  _78
REMARK   34  A    between atoms: _78  and  _79
REMARK   35  A    between atoms: _78  and  _81
REMARK   36  A    between atoms: _81  and  _82
REMARK   37  A    between atoms: _85  and  _87
REMARK   38  A    between atoms: _87  and  _88
REMARK   39  A    between atoms: _87  and  _90
REMARK   40  A    between atoms: _90  and  _91
REMARK   41  A    between atoms: _96  and  _97
REMARK   42  A    between atoms: _99  and  _101
REMARK   43  A    between atoms: _101  and  _102
REMARK   44  A    between atoms: _101  and  _104
REMARK   45  A    between atoms: _104  and  _105
REMARK   46  A    between atoms: _108  and  _110
REMARK   47  A    between atoms: _110  and  _111
REMARK   48  A    between atoms: _110  and  _113
REMARK   49  A    between atoms: _113  and  _114
REMARK   50  A    between atoms: _117  and  _119
REMARK   51  A    between atoms: _119  and  _120
REMARK   52  A    between atoms: _119  and  _122
REMARK   53  A    between atoms: _125  and  _127
REMARK   54  A    between atoms: _127  and  _128
REMARK   55  A    between atoms: _127  and  _130
REMARK   56  A    between atoms: _130  and  _131
REMARK   57  A    between atoms: _131  and  _132
REMARK   58  A    between atoms: _132  and  _133
REMARK   59  A    between atoms: _142  and  _144
REMARK   60  A    between atoms: _144  and  _145
REMARK   61  A    between atoms: _144  and  _147
REMARK   62  A    between atoms: _147  and  _148
REMARK   63  A    between atoms: _153  and  _155
REMARK   64  A    between atoms: _155  and  _156
REMARK   65  A    between atoms: _155  and  _158
REMARK   66  A    between atoms: _158  and  _159
REMARK   67  A    between atoms: _159  and  _160
REMARK   68  A    between atoms: _163  and  _165
REMARK   69  A    between atoms: _165  and  _166
REMARK   70  A    between atoms: _165  and  _168
REMARK   71  A    between atoms: _168  and  _169
REMARK   72  A    between atoms: _169  and  _170
REMARK   73  A    between atoms: _170  and  _171
REMARK   74  A    between atoms: _171  and  _172
REMARK   75  A    between atoms: _176  and  _178
REMARK   76  A    between atoms: _178  and  _179
REMARK   77  A    between atoms: _181  and  _183
REMARK   78  A    between atoms: _183  and  _184
REMARK   79  A    between atoms: _183  and  _186
REMARK   80  A    between atoms: _189  and  _191
REMARK   81  A    between atoms: _191  and  _192
REMARK   82  A    between atoms: _191  and  _194
REMARK   83  A    between atoms: _194  and  _195
REMARK   84  A    between atoms: _197  and  _199
REMARK   85  A    between atoms: _199  and  _200
REMARK   86  A    between atoms: _199  and  _202
REMARK   87  A    between atoms: _202  and  _203
REMARK   88  A    between atoms: _205  and  _207
REMARK   89  A    between atoms: _207  and  _208
REMARK   90  A    between atoms: _207  and  _210
REMARK   91  A    between atoms: _210  and  _211
REMARK   92  A    between atoms: _217  and  _219
REMARK   93  A    between atoms: _219  and  _220
REMARK   94  A    between atoms: _219  and  _222
REMARK   95  A    between atoms: _222  and  _223
REMARK   96  A    between atoms: _226  and  _228
REMARK   97  A    between atoms: _228  and  _229
REMARK   98  A    between atoms: _228  and  _231
REMARK   99  A    between atoms: _231  and  _232
REMARK  100  A    between atoms: _235  and  _237
REMARK  101  A    between atoms: _237  and  _238
REMARK  102  A    between atoms: _237  and  _240
REMARK  103  A    between atoms: _240  and  _241
REMARK  104  A    between atoms: _244  and  _246
REMARK  105  A    between atoms: _246  and  _247
REMARK  106  A    between atoms: _246  and  _249
REMARK  107  A    between atoms: _249  and  _250
REMARK  108  A    between atoms: _250  and  _251
REMARK  109  A    between atoms: _253  and  _255
REMARK  110  A    between atoms: _255  and  _256
REMARK  111  A    between atoms: _255  and  _258
REMARK  112  A    between atoms: _258  and  _259
REMARK  113  A    between atoms: _265  and  _267
REMARK  114  A    between atoms: _267  and  _268
REMARK  115  A    between atoms: _267  and  _270
REMARK  116  A    between atoms: _272  and  _274
REMARK  117  A    between atoms: _274  and  _275
REMARK  118  A    between atoms: _278  and  _280
REMARK  119  A    between atoms: _280  and  _281
REMARK  120  A    between atoms: _283  and  _285
REMARK  121  A    between atoms: _285  and  _286
REMARK  122  A    between atoms: _285  and  _288
REMARK  123  A    between atoms: _288  and  _289
REMARK  124  A    between atoms: _289  and  _290
REMARK  125  A    between atoms: _293  and  _295
REMARK  126  A    between atoms: _295  and  _296
REMARK  127  A    between atoms: _295  and  _298
REMARK  128  A    between atoms: _298  and  _299
REMARK  129  A    between atoms: _302  and  _304
REMARK  130  A    between atoms: _304  and  _305
REMARK  131  A    between atoms: _308  and  _310
REMARK  132  A    between atoms: _310  and  _311
REMARK  133  A    between atoms: _310  and  _313
REMARK  134  A    between atoms: _313  and  _314
REMARK  135  A    between atoms: _314  and  _437
REMARK  136  A    between atoms: _315  and  _317
REMARK  137  A    between atoms: _317  and  _318
REMARK  138  A    between atoms: _317  and  _320
REMARK  139  A    between atoms: _320  and  _321
REMARK  140  A    between atoms: _321  and  _322
REMARK  141  A    between atoms: _327  and  _329
REMARK  142  A    between atoms: _329  and  _330
REMARK  143  A    between atoms: _332  and  _334
REMARK  144  A    between atoms: _334  and  _335
REMARK  145  A    between atoms: _334  and  _337
REMARK  146  A    between atoms: _337  and  _338
REMARK  147  A    between atoms: _341  and  _343
REMARK  148  A    between atoms: _343  and  _344
REMARK  149  A    between atoms: _343  and  _346
REMARK  150  A    between atoms: _346  and  _347
REMARK  151  A    between atoms: _349  and  _351
REMARK  152  A    between atoms: _351  and  _352
REMARK  153  A    between atoms: _354  and  _356
REMARK  154  A    between atoms: _356  and  _357
REMARK  155  A    between atoms: _359  and  _361
REMARK  156  A    between atoms: _361  and  _362
REMARK  157  A    between atoms: _361  and  _364
REMARK  158  A    between atoms: _364  and  _365
REMARK  159  A    between atoms: _370  and  _372
REMARK  160  A    between atoms: _372  and  _373
REMARK  161  A    between atoms: _372  and  _375
REMARK  162  A    between atoms: _375  and  _376
REMARK  163  A    between atoms: _379  and  _381
REMARK  164  A    between atoms: _381  and  _382
REMARK  165  A    between atoms: _381  and  _384
REMARK  166  A    between atoms: _387  and  _389
REMARK  167  A    between atoms: _389  and  _390
REMARK  168  A    between atoms: _389  and  _392
REMARK  169  A    between atoms: _392  and  _393
REMARK  170  A    between atoms: _395  and  _397
REMARK  171  A    between atoms: _397  and  _398
REMARK  172  A    between atoms: _397  and  _400
REMARK  173  A    between atoms: _400  and  _401
REMARK  174  A    between atoms: _411  and  _413
REMARK  175  A    between atoms: _413  and  _414
REMARK  176  A    between atoms: _416  and  _418
REMARK  177  A    between atoms: _418  and  _419
REMARK  178  A    between atoms: _418  and  _421
REMARK  179  A    between atoms: _421  and  _422
REMARK  180  A    between atoms: _422  and  _423
REMARK  181  A    between atoms: _426  and  _428
REMARK  182  A    between atoms: _428  and  _429
REMARK  183  A    between atoms: _431  and  _433
REMARK  184  A    between atoms: _433  and  _434
REMARK  185  A    between atoms: _433  and  _436
REMARK  186  A    between atoms: _436  and  _437
REMARK  187  A    between atoms: _438  and  _440
REMARK  188  A    between atoms: _440  and  _441
REMARK  189  A    between atoms: _444  and  _446
REMARK  190  A    between atoms: _446  and  _447
REMARK  191  A    between atoms: _446  and  _449
REMARK  192  A    between atoms: _449  and  _450
REMARK  193  A    between atoms: _450  and  _451
REMARK  194  A    between atoms: _451  and  _452
REMARK  195  A    between atoms: _461  and  _463
REMARK  196  A    between atoms: _463  and  _464
REMARK  197  A    between atoms: _463  and  _466
REMARK  198  A    between atoms: _466  and  _467
REMARK  199  A    between atoms: _467  and  _468
REMARK  200  A    between atoms: _468  and  _469
REMARK  201  A    between atoms: _469  and  _470
REMARK  202  A    between atoms: _474  and  _476
REMARK  203  A    between atoms: _476  and  _477
REMARK  204  A    between atoms: _476  and  _479
REMARK  205  A    between atoms: _479  and  _480
REMARK  206  A    between atoms: _485  and  _486
REMARK  207  A    between atoms: _488  and  _490
REMARK  208  A    between atoms: _490  and  _491
REMARK  209  A    between atoms: _493  and  _495
REMARK  210  A    between atoms: _495  and  _496
REMARK  211  A    between atoms: _495  and  _498
REMARK  212  A    between atoms: _498  and  _499
REMARK  213  A    between atoms: _502  and  _504
REMARK  214  A    between atoms: _504  and  _505
REMARK  215  A    between atoms: _504  and  _507
REMARK  216  A    between atoms: _507  and  _508
REMARK  217  A    between atoms: _513  and  _514
REMARK  218  A    between atoms: _516  and  _518
REMARK  219  A    between atoms: _518  and  _519
REMARK  220  A    between atoms: _518  and  _521
REMARK  221  A    between atoms: _521  and  _522
REMARK                            x       y       z     vdW  Elec       q    Type
REMARK                         _______ _______ _______ _____ _____    ______ ____
ROOT
ATOM      1  CB  HIS A   1      23.719  59.257   7.009  0.00  0.00    +0.072 C 
ENDROOT
BRANCH   1   2
ATOM      2  CG  HIS A   1      23.749  58.965   8.485  0.00  0.00    +0.082 A 
ATOM      3  CD2 HIS A   1      23.085  59.533   9.517  0.00  0.00    +0.115 A 
ATOM      4  NE2 HIS A   1      23.445  58.853  10.657  0.00  0.00    -0.221 NA
ATOM      5  CE1 HIS A   1      24.308  57.903  10.335  0.00  0.00    +0.199 A 
ATOM      6  ND1 HIS A   1      24.509  57.949   9.029  0.00  0.00    -0.227 NA
ENDBRANCH   1   2
BRANCH   1   7
ATOM      7  CA  HIS A   1      24.977  59.973   6.519  0.00  0.00    +0.139 C 
BRANCH   7   8
ATOM      8  N   HIS A   1      25.078  60.068   5.081  0.00  0.00    -0.239 NA
ATOM      9  H   HIS A   1      25.148  59.192   4.525  0.00  0.00    +0.142 HD
ENDBRANCH   7   8
BRANCH   7  10
ATOM     10  C   HIS A   1      26.184  59.066   6.758  0.00  0.00    +0.224 C 
ATOM     11  O   HIS A   1      26.234  57.926   6.266  0.00  0.00    -0.287 OA
ENDBRANCH   7  10
ENDBRANCH   1   7
TORSDOF 4
REMARK  Name = ../refined-set-2016/2xbx/2xbx_pocket.pdb
REMARK  221 active torsions:
REMARK  status: ('A' for Active; 'I' for Inactive)
REMARK    1  A    between atoms: _1  and  _3
REMARK    2  A    between atoms: _3  and  _4
REMARK    3  A    between atoms: _3  and  _6
REMARK    4  A    between atoms: _9  and  _11
REMARK    5  A    between atoms: _11  and  _12
REMARK    6  A    between atoms: _11  and  _14
REMARK    7  A    between atoms: _14  and  _15
REMARK    8  A    between atoms: _20  and  _22
REMARK    9  A    between atoms: _22  and  _23
REMARK   10  A    between atoms: _22  and  _25
REMARK   11  A    between atoms: _25  and  _26
REMARK   12  A    between atoms: _26  and  _27
REMARK   13  A    between atoms: _32  and  _34
REMARK   14  A    between atoms: _34  and  _35
REMARK   15  A    between atoms: _34  and  _37
REMARK   16  A    between atoms: _37  and  _38
REMARK   17  A    between atoms: _44  and  _46
REMARK   18  A    between atoms: _46  and  _47
REMARK   19  A    between atoms: _46  and  _49
REMARK   20  A    between atoms: _49  and  _50
REMARK   21  A    between atoms: _53  and  _55
REMARK   22  A    between atoms: _55  and  _56
REMARK   23  A    between atoms: _55  and  _58
REMARK   24  A    between atoms: _58  and  _59
REMARK   25  A    between atoms: _59  and  _60
REMARK   26  A    between atoms: _60  and  _61
REMARK   27  A    between atoms: _61  and  _62
REMARK   28  A    between atoms: _66  and  _68
REMARK   29  A    between atoms: _68  and  _69
REMARK   30  A    between atoms: _68  and  _71
REMARK   31  A    between atoms: _71  and  _72
REMARK   32  A    between atoms: _72  and  _73
REMARK   33  A    between atoms: _76  and  _78
REMARK   34  A    between atoms: _78  and  _79
REMARK   35  A    between atoms: _78  and  _81
REMARK   36  A    between atoms: _81  and  _82
REMARK   37  A    between atoms: _85  and  _87
REMARK   38  A    between atoms: _87  and  _88
REMARK   39  A    between atoms: _87  and  _90
REMARK   40  A    between atoms: _90  and  _91
REMARK   41  A    between atoms: _96  and  _97
REMARK   42  A    between atoms: _99  and  _101
REMARK   43  A    between atoms: _101  and  _102
REMARK   44  A    between atoms: _101  and  _104
REMARK   45  A    between atoms: _104  and  _105
REMARK   46  A    between atoms: _108  and  _110
REMARK   47  A    between atoms: _110  and  _111
REMARK   48  A    between atoms: _110  and  _113
REMARK   49  A    between atoms: _113  and  _114
REMARK   50  A    between atoms: _117  and  _119
REMARK   51  A    between atoms: _119  and  _120
REMARK   52  A    between atoms: _119  and  _122
REMARK   53  A    between atoms: _125  and  _127
REMARK   54  A    between atoms: _127  and  _128
REMARK   55  A    between atoms: _127  and  _130
REMARK   56  A    between atoms: _130  and  _131
REMARK   57  A    between atoms: _131  and  _132
REMARK   58  A    between atoms: _132  and  _133
REMARK   59  A    between atoms: _142  and  _144
REMARK   60  A    between atoms: _144  and  _145
REMARK   61  A    between atoms: _144  and  _147
REMARK   62  A    between atoms: _147  and  _148
REMARK   63  A    between atoms: _153  and  _155
REMARK   64  A    between atoms: _155  and  _156
REMARK   65  A    between atoms: _155  and  _158
REMARK   66  A    between atoms: _158  and  _159
REMARK   67  A    between atoms: _159  and  _160
REMARK   68  A    between atoms: _163  and  _165
REMARK   69  A    between atoms: _165  and  _166
REMARK   70  A    between atoms: _165  and  _168
REMARK   71  A    between atoms: _168  and  _169
REMARK   72  A    between atoms: _169  and  _170
REMARK   73  A    between atoms: _170  and  _171
REMARK   74  A    between atoms: _171  and  _172
REMARK   75  A    between atoms: _176  and  _178
REMARK   76  A    between atoms: _178  and  _179
REMARK   77  A    between atoms: _181  and  _183
REMARK   78  A    between atoms: _183  and  _184
REMARK   79  A    between atoms: _183  and  _186
REMARK   80  A    between atoms: _189  and  _191
REMARK   81  A    between atoms: _191  and  _192
REMARK   82  A    between atoms: _191  and  _194
REMARK   83  A    between atoms: _194  and  _195
REMARK   84  A    between atoms: _197  and  _199
REMARK   85  A    between atoms: _199  and  _200
REMARK   86  A    between atoms: _199  and  _202
REMARK   87  A    between atoms: _202  and  _203
REMARK   88  A    between atoms: _205  and  _207
REMARK   89  A    between atoms: _207  and  _208
REMARK   90  A    between atoms: _207  and  _210
REMARK   91  A    between atoms: _210  and  _211
REMARK   92  A    between atoms: _217  and  _219
REMARK   93  A    between atoms: _219  and  _220
REMARK   94  A    between atoms: _219  and  _222
REMARK   95  A    between atoms: _222  and  _223
REMARK   96  A    between atoms: _226  and  _228
REMARK   97  A    between atoms: _228  and  _229
REMARK   98  A    between atoms: _228  and  _231
REMARK   99  A    between atoms: _231  and  _232
REMARK  100  A    between atoms: _235  and  _237
REMARK  101  A    between atoms: _237  and  _238
REMARK  102  A    between atoms: _237  and  _240
REMARK  103  A    between atoms: _240  and  _241
REMARK  104  A    between atoms: _244  and  _246
REMARK  105  A    between atoms: _246  and  _247
REMARK  106  A    between atoms: _246  and  _249
REMARK  107  A    between atoms: _249  and  _250
REMARK  108  A    between atoms: _250  and  _251
REMARK  109  A    between atoms: _253  and  _255
REMARK  110  A    between atoms: _255  and  _256
REMARK  111  A    between atoms: _255  and  _258
REMARK  112  A    between atoms: _258  and  _259
REMARK  113  A    between atoms: _265  and  _267
REMARK  114  A    between atoms: _267  and  _268
REMARK  115  A    between atoms: _267  and  _270
REMARK  116  A    between atoms: _272  and  _274
REMARK  117  A    between atoms: _274  and  _275
REMARK  118  A    between atoms: _278  and  _280
REMARK  119  A    between atoms: _280  and  _281
REMARK  120  A    between atoms: _283  and  _285
REMARK  121  A    between atoms: _285  and  _286
REMARK  122  A    between atoms: _285  and  _288
REMARK  123  A    between atoms: _288  and  _289
REMARK  124  A    between atoms: _289  and  _290
REMARK  125  A    between atoms: _293  and  _295
REMARK  126  A    between atoms: _295  and  _296
REMARK  127  A    between atoms: _295  and  _298
REMARK  128  A    between atoms: _298  and  _299
REMARK  129  A    between atoms: _302  and  _304
REMARK  130  A    between atoms: _304  and  _305
REMARK  131  A    between atoms: _308  and  _310
REMARK  132  A    between atoms: _310  and  _311
REMARK  133  A    between atoms: _310  and  _313
REMARK  134  A    between atoms: _313  and  _314
REMARK  135  A    between atoms: _314  and  _437
REMARK  136  A    between atoms: _315  and  _317
REMARK  137  A    between atoms: _317  and  _318
REMARK  138  A    between atoms: _317  and  _320
REMARK  139  A    between atoms: _320  and  _321
REMARK  140  A    between atoms: _321  and  _322
REMARK  141  A    between atoms: _327  and  _329
REMARK  142  A    between atoms: _329  and  _330
REMARK  143  A    between atoms: _332  and  _334
REMARK  144  A    between atoms: _334  and  _335
REMARK  145  A    between atoms: _334  and  _337
REMARK  146  A    between atoms: _337  and  _338
REMARK  147  A    between atoms: _341  and  _343
REMARK  148  A    between atoms: _343  and  _344
REMARK  149  A    between atoms: _343  and  _346
REMARK  150  A    between atoms: _346  and  _347
REMARK  151  A    between atoms: _349  and  _351
REMARK  152  A    between atoms: _351  and  _352
REMARK  153  A    between atoms: _354  and  _356
REMARK  154  A    between atoms: _356  and  _357
REMARK  155  A    between atoms: _359  and  _361
REMARK  156  A    between atoms: _361  and  _362
REMARK  157  A    between atoms: _361  and  _364
REMARK  158  A    between atoms: _364  and  _365
REMARK  159  A    between atoms: _370  and  _372
REMARK  160  A    between atoms: _372  and  _373
REMARK  161  A    between atoms: _372  and  _375
REMARK  162  A    between atoms: _375  and  _376
REMARK  163  A    between atoms: _379  and  _381
REMARK  164  A    between atoms: _381  and  _382
REMARK  165  A    between atoms: _381  and  _384
REMARK  166  A    between atoms: _387  and  _389
REMARK  167  A    between atoms: _389  and  _390
REMARK  168  A    between atoms: _389  and  _392
REMARK  169  A    between atoms: _392  and  _393
REMARK  170  A    between atoms: _395  and  _397
REMARK  171  A    between atoms: _397  and  _398
REMARK  172  A    between atoms: _397  and  _400
REMARK  173  A    between atoms: _400  and  _401
REMARK  174  A    between atoms: _411  and  _413
REMARK  175  A    between atoms: _413  and  _414
REMARK  176  A    between atoms: _416  and  _418
REMARK  177  A    between atoms: _418  and  _419
REMARK  178  A    between atoms: _418  and  _421
REMARK  179  A    between atoms: _421  and  _422
REMARK  180  A    between atoms: _422  and  _423
REMARK  181  A    between atoms: _426  and  _428
REMARK  182  A    between atoms: _428  and  _429
REMARK  183  A    between atoms: _431  and  _433
REMARK  184  A    between atoms: _433  and  _434
REMARK  185  A    between atoms: _433  and  _436
REMARK  186  A    between atoms: _436  and  _437
REMARK  187  A    between atoms: _438  and  _440
REMARK  188  A    between atoms: _440  and  _441
REMARK  189  A    between atoms: _444  and  _446
REMARK  190  A    between atoms: _446  and  _447
REMARK  191  A    between atoms: _446  and  _449
REMARK  192  A    between atoms: _449  and  _450
REMARK  193  A    between atoms: _450  and  _451
REMARK  194  A    between atoms: _451  and  _452
REMARK  195  A    between atoms: _461  and  _463
REMARK  196  A    between atoms: _463  and  _464
REMARK  197  A    between atoms: _463  and  _466
REMARK  198  A    between atoms: _466  and  _467
REMARK  199  A    between atoms: _467  and  _468
REMARK  200  A    between atoms: _468  and  _469
REMARK  201  A    between atoms: _469  and  _470
REMARK  202  A    between atoms: _474  and  _476
REMARK  203  A    between atoms: _476  and  _477
REMARK  204  A    between atoms: _476  and  _479
REMARK  205  A    between atoms: _479  and  _480
REMARK  206  A    between atoms: _485  and  _486
REMARK  207  A    between atoms: _488  and  _490
REMARK  208  A    between atoms: _490  and  _491
REMARK  209  A    between atoms: _493  and  _495
REMARK  210  A    between atoms: _495  and  _496
REMARK  211  A    between atoms: _495  and  _498
REMARK  212  A    between atoms: _498  and  _499
REMARK  213  A    between atoms: _502  and  _504
REMARK  214  A    between atoms: _504  and  _505
REMARK  215  A    between atoms: _504  and  _507
REMARK  216  A    between atoms: _507  and  _508
REMARK  217  A    between atoms: _513  and  _514
REMARK  218  A    between atoms: _516  and  _518
REMARK  219  A    between atoms: _518  and  _519
REMARK  220  A    between atoms: _518  and  _521
REMARK  221  A    between atoms: _521  and  _522
REMARK                            x       y       z     vdW  Elec       q    Type
REMARK                         _______ _______ _______ _____ _____    ______ ____
ROOT
ATOM      1  C   GLY A   3      15.035  60.497   9.863  0.00  0.00    +0.243 C 
ATOM      2  O   GLY A   3      15.507  59.744  10.694  0.00  0.00    -0.273 OA
ATOM      3  N   ILE A   4      14.582  60.091   8.672  0.00  0.00    -0.297 N 
ATOM      4  H   ILE A   4      14.203  60.796   8.008  0.00  0.00    +0.150 HD
ENDROOT
BRANCH   3   5
ATOM      5  CA  ILE A   4      14.604  58.692   8.280  0.00  0.00    +0.149 C 
BRANCH   5   6
ATOM      6  C   ILE A   4      15.634  58.528   7.171  0.00  0.00    +0.241 C 
ATOM      7  N   TYR A   5      16.491  57.532   7.359  0.00  0.00    -0.297 N 
ATOM      8  H   TYR A   5      16.372  56.931   8.199  0.00  0.00    +0.150 HD
ATOM      9  O   ILE A   4      15.640  59.275   6.177  0.00  0.00    -0.273 OA
BRANCH   7  10
ATOM     10  CA  TYR A   5      17.595  57.236   6.444  0.00  0.00    +0.153 C 
BRANCH  10  11
ATOM     11  C   TYR A   5      17.561  55.849   5.903  0.00  0.00    +0.241 C 
ATOM     12  O   TYR A   5      17.112  54.927   6.581  0.00  0.00    -0.273 OA
ATOM     13  N   THR A   6      18.004  55.666   4.658  0.00  0.00    -0.296 N 
ATOM     14  H   THR A   6      18.288  56.476   4.072  0.00  0.00    +0.150 HD
BRANCH  13  15
ATOM     15  CA  THR A   6      18.081  54.317   4.140  0.00  0.00    +0.164 C 
BRANCH  15  16
ATOM     16  C   THR A   6      19.257  53.688   4.888  0.00  0.00    +0.229 C 
ATOM     17  O   THR A   6      20.298  54.306   5.002  0.00  0.00    -0.286 OA
ENDBRANCH  15  16
BRANCH  15  18
ATOM     18  CB  THR A   6      18.393  54.333   2.650  0.00  0.00    +0.136 C 
ATOM     19  CG2 THR A   6      18.454  52.910   2.065  0.00  0.00    +0.034 C 
BRANCH  18  20
ATOM     20  OG1 THR A   6      17.362  55.080   2.006  0.00  0.00    -0.382 OA
ATOM     21  HG1 THR A   6      17.536  55.109   1.032  0.00  0.00    +0.210 HD
ENDBRANCH  18  20
ENDBRANCH  15  18
ENDBRANCH  13  15
ENDBRANCH  10  11
BRANCH  10  22
ATOM     22  CB  TYR A   5      18.914  57.413   7.208  0.00  0.00    +0.055 C 
BRANCH  22  23
ATOM     23  CG  TYR A   5      19.142  58.827   7.715  0.00  0.00    -0.020 A 
ATOM     24  CD2 TYR A   5      18.468  59.300   8.861  0.00  0.00    -0.001 A 
ATOM     25  CE2 TYR A   5      18.662  60.570   9.319  0.00  0.00    +0.036 A 
ATOM     26  CZ  TYR A   5      19.548  61.414   8.659  0.00  0.00    +0.134 A 
ATOM     27  CE1 TYR A   5      20.241  60.990   7.526  0.00  0.00    +0.036 A 
ATOM     28  CD1 TYR A   5      20.026  59.693   7.057  0.00  0.00    -0.001 A 
BRANCH  26  29
ATOM     29  OH  TYR A   5      19.734  62.699   9.129  0.00  0.00    -0.506 OA
ATOM     30  HH  TYR A   5      18.871  63.184   9.110  0.00  0.00    +0.292 HD
ENDBRANCH  26  29
ENDBRANCH  22  23
ENDBRANCH  10  22
ENDBRANCH   7  10
ENDBRANCH   5   6
BRANCH   5  31
ATOM     31  CB  ILE A   4      13.195  58.217   7.826  0.00  0.00    +0.027 C 
ATOM     32  CG2 ILE A   4      13.158  56.669   7.779  0.00  0.00    +0.002 C 
BRANCH  31  33
ATOM     33  CG1 ILE A   4      12.116  58.853   8.749  0.00  0.00    +0.002 C 
ATOM     34  CD1 ILE A   4      12.077  58.375  10.152  0.00  0.00    +0.000 C 
ENDBRANCH  31  33
ENDBRANCH   5  31
ENDBRANCH   3   5
BRANCH   1  35
ATOM     35  CA  GLY A   3      14.958  61.974  10.190  0.00  0.00    +0.176 C 
BRANCH  35  37
ATOM     36  C   TYR A   2      13.276  62.143  11.908  0.00  0.00    +0.241 C 
ATOM     37  N   GLY A   3      14.569  62.047  11.592  0.00  0.00    -0.295 N 
ATOM     38  H   GLY A   3      15.292  62.025  12.339  0.00  0.00    +0.150 HD
ATOM     39  O   TYR A   2      12.378  62.173  11.064  0.00  0.00    -0.273 OA
BRANCH  36  40
ATOM     40  CA  TYR A   2      12.947  62.187  13.396  0.00  0.00    +0.153 C 
BRANCH  40  43
ATOM     41  C   LYS A   1      11.073  63.450  14.350  0.00  0.00    +0.238 C 
ATOM     42  O   LYS A   1      11.819  64.312  14.849  0.00  0.00    -0.274 OA
ATOM     43  N   TYR A   2      11.517  62.423  13.637  0.00  0.00    -0.297 N 
ATOM     44  H   TYR A   2      10.826  61.759  13.233  0.00  0.00    +0.150 HD
BRANCH  41  45
ATOM     45  CA  LYS A   1       9.551  63.548  14.518  0.00  0.00    +0.145 C 
BRANCH  45  46
ATOM     46  N   LYS A   1       9.276  64.258  15.756  0.00  0.00    -0.238 NA
ATOM     47  H   LYS A   1       9.759  65.157  15.954  0.00  0.00    +0.142 HD
ENDBRANCH  45  46
BRANCH  45  48
ATOM     48  CB  LYS A   1       8.920  64.282  13.328  0.00  0.00    +0.026 C 
BRANCH  48  49
ATOM     49  CG  LYS A   1       7.358  64.284  13.366  0.00  0.00    -0.000 C 
BRANCH  49  50
ATOM     50  CD  LYS A   1       6.802  62.886  13.053  0.00  0.00    -0.024 C 
BRANCH  50  51
ATOM     51  CE  LYS A   1       5.253  62.811  13.109  0.00  0.00    -0.086 C 
BRANCH  51  52
ATOM     52  NZ  LYS A   1       4.741  62.805  14.511  0.00  0.00    +0.380 N 
ATOM     53  HZ1 LYS A   1       5.124  61.980  15.015  0.00  0.00    -0.089 HD
ATOM     54  HZ2 LYS A   1       5.041  63.677  14.992  0.00  0.00    -0.089 HD
ATOM     55  HZ3 LYS A   1       3.702  62.754  14.499  0.00  0.00    -0.089 HD
ENDBRANCH  51  52
ENDBRANCH  50  51
ENDBRANCH  49  50
ENDBRANCH  48  49
ENDBRANCH  45  48
ENDBRANCH  41  45
ENDBRANCH  40  43
BRANCH  40  56
ATOM     56  CB  TYR A   2      13.352  60.849  14.008  0.00  0.00    +0.055 C 
BRANCH  56  57
ATOM     57  CG  TYR A   2      13.110  60.804  15.495  0.00  0.00    -0.020 A 
ATOM     58  CD2 TYR A   2      13.917  61.518  16.362  0.00  0.00    -0.001 A 
ATOM     59  CE2 TYR A   2      13.694  61.514  17.726  0.00  0.00    +0.036 A 
ATOM     60  CZ  TYR A   2      12.630  60.781  18.243  0.00  0.00    +0.134 A 
ATOM     61  CE1 TYR A   2      11.802  60.051  17.403  0.00  0.00    +0.036 A 
ATOM     62  CD1 TYR A   2      12.044  60.066  16.032  0.00  0.00    -0.001 A 
BRANCH  60  63
ATOM     63  OH  TYR A   2      12.386  60.815  19.612  0.00  0.00    -0.506 OA
ATOM     64  HH  TYR A   2      11.487  61.195  19.776  0.00  0.00    +0.292 HD
ENDBRANCH  60  63
ENDBRANCH  56  57
ENDBRANCH  40  56
ENDBRANCH  36  40
ENDBRANCH  35  37
ENDBRANCH   1  35
TORSDOF 27
REMARK  Name = ../refined-set-2016/2xbx/2xbx_pocket.pdb
REMARK  221 active torsions:
REMARK  status: ('A' for Active; 'I' for Inactive)
REMARK    1  A    between atoms: _1  and  _3
REMARK    2  A    between atoms: _3  and  _4
REMARK    3  A    between atoms: _3  and  _6
REMARK    4  A    between atoms: _9  and  _11
REMARK    5  A    between atoms: _11  and  _12
REMARK    6  A    between atoms: _11  and  _14
REMARK    7  A    between atoms: _14  and  _15
REMARK    8  A    between atoms: _20  and  _22
REMARK    9  A    between atoms: _22  and  _23
REMARK   10  A    between atoms: _22  and  _25
REMARK   11  A    between atoms: _25  and  _26
REMARK   12  A    between atoms: _26  and  _27
REMARK   13  A    between atoms: _32  and  _34
REMARK   14  A    between atoms: _34  and  _35
REMARK   15  A    between atoms: _34  and  _37
REMARK   16  A    between atoms: _37  and  _38
REMARK   17  A    between atoms: _44  and  _46
REMARK   18  A    between atoms: _46  and  _47
REMARK   19  A    between atoms: _46  and  _49
REMARK   20  A    between atoms: _49  and  _50
REMARK   21  A    between atoms: _53  and  _55
REMARK   22  A    between atoms: _55  and  _56
REMARK   23  A    between atoms: _55  and  _58
REMARK   24  A    between atoms: _58  and  _59
REMARK   25  A    between atoms: _59  and  _60
REMARK   26  A    between atoms: _60  and  _61
REMARK   27  A    between atoms: _61  and  _62
REMARK   28  A    between atoms: _66  and  _68
REMARK   29  A    between atoms: _68  and  _69
REMARK   30  A    between atoms: _68  and  _71
REMARK   31  A    between atoms: _71  and  _72
REMARK   32  A    between atoms: _72  and  _73
REMARK   33  A    between atoms: _76  and  _78
REMARK   34  A    between atoms: _78  and  _79
REMARK   35  A    between atoms: _78  and  _81
REMARK   36  A    between atoms: _81  and  _82
REMARK   37  A    between atoms: _85  and  _87
REMARK   38  A    between atoms: _87  and  _88
REMARK   39  A    between atoms: _87  and  _90
REMARK   40  A    between atoms: _90  and  _91
REMARK   41  A    between atoms: _96  and  _97
REMARK   42  A    between atoms: _99  and  _101
REMARK   43  A    between atoms: _101  and  _102
REMARK   44  A    between atoms: _101  and  _104
REMARK   45  A    between atoms: _104  and  _105
REMARK   46  A    between atoms: _108  and  _110
REMARK   47  A    between atoms: _110  and  _111
REMARK   48  A    between atoms: _110  and  _113
REMARK   49  A    between atoms: _113  and  _114
REMARK   50  A    between atoms: _117  and  _119
REMARK   51  A    between atoms: _119  and  _120
REMARK   52  A    between atoms: _119  and  _122
REMARK   53  A    between atoms: _125  and  _127
REMARK   54  A    between atoms: _127  and  _128
REMARK   55  A    between atoms: _127  and  _130
REMARK   56  A    between atoms: _130  and  _131
REMARK   57  A    between atoms: _131  and  _132
REMARK   58  A    between atoms: _132  and  _133
REMARK   59  A    between atoms: _142  and  _144
REMARK   60  A    between atoms: _144  and  _145
REMARK   61  A    between atoms: _144  and  _147
REMARK   62  A    between atoms: _147  and  _148
REMARK   63  A    between atoms: _153  and  _155
REMARK   64  A    between atoms: _155  and  _156
REMARK   65  A    between atoms: _155  and  _158
REMARK   66  A    between atoms: _158  and  _159
REMARK   67  A    between atoms: _159  and  _160
REMARK   68  A    between atoms: _163  and  _165
REMARK   69  A    between atoms: _165  and  _166
REMARK   70  A    between atoms: _165  and  _168
REMARK   71  A    between atoms: _168  and  _169
REMARK   72  A    between atoms: _169  and  _170
REMARK   73  A    between atoms: _170  and  _171
REMARK   74  A    between atoms: _171  and  _172
REMARK   75  A    between atoms: _176  and  _178
REMARK   76  A    between atoms: _178  and  _179
REMARK   77  A    between atoms: _181  and  _183
REMARK   78  A    between atoms: _183  and  _184
REMARK   79  A    between atoms: _183  and  _186
REMARK   80  A    between atoms: _189  and  _191
REMARK   81  A    between atoms: _191  and  _192
REMARK   82  A    between atoms: _191  and  _194
REMARK   83  A    between atoms: _194  and  _195
REMARK   84  A    between atoms: _197  and  _199
REMARK   85  A    between atoms: _199  and  _200
REMARK   86  A    between atoms: _199  and  _202
REMARK   87  A    between atoms: _202  and  _203
REMARK   88  A    between atoms: _205  and  _207
REMARK   89  A    between atoms: _207  and  _208
REMARK   90  A    between atoms: _207  and  _210
REMARK   91  A    between atoms: _210  and  _211
REMARK   92  A    between atoms: _217  and  _219
REMARK   93  A    between atoms: _219  and  _220
REMARK   94  A    between atoms: _219  and  _222
REMARK   95  A    between atoms: _222  and  _223
REMARK   96  A    between atoms: _226  and  _228
REMARK   97  A    between atoms: _228  and  _229
REMARK   98  A    between atoms: _228  and  _231
REMARK   99  A    between atoms: _231  and  _232
REMARK  100  A    between atoms: _235  and  _237
REMARK  101  A    between atoms: _237  and  _238
REMARK  102  A    between atoms: _237  and  _240
REMARK  103  A    between atoms: _240  and  _241
REMARK  104  A    between atoms: _244  and  _246
REMARK  105  A    between atoms: _246  and  _247
REMARK  106  A    between atoms: _246  and  _249
REMARK  107  A    between atoms: _249  and  _250
REMARK  108  A    between atoms: _250  and  _251
REMARK  109  A    between atoms: _253  and  _255
REMARK  110  A    between atoms: _255  and  _256
REMARK  111  A    between atoms: _255  and  _258
REMARK  112  A    between atoms: _258  and  _259
REMARK  113  A    between atoms: _265  and  _267
REMARK  114  A    between atoms: _267  and  _268
REMARK  115  A    between atoms: _267  and  _270
REMARK  116  A    between atoms: _272  and  _274
REMARK  117  A    between atoms: _274  and  _275
REMARK  118  A    between atoms: _278  and  _280
REMARK  119  A    between atoms: _280  and  _281
REMARK  120  A    between atoms: _283  and  _285
REMARK  121  A    between atoms: _285  and  _286
REMARK  122  A    between atoms: _285  and  _288
REMARK  123  A    between atoms: _288  and  _289
REMARK  124  A    between atoms: _289  and  _290
REMARK  125  A    between atoms: _293  and  _295
REMARK  126  A    between atoms: _295  and  _296
REMARK  127  A    between atoms: _295  and  _298
REMARK  128  A    between atoms: _298  and  _299
REMARK  129  A    between atoms: _302  and  _304
REMARK  130  A    between atoms: _304  and  _305
REMARK  131  A    between atoms: _308  and  _310
REMARK  132  A    between atoms: _310  and  _311
REMARK  133  A    between atoms: _310  and  _313
REMARK  134  A    between atoms: _313  and  _314
REMARK  135  A    between atoms: _314  and  _437
REMARK  136  A    between atoms: _315  and  _317
REMARK  137  A    between atoms: _317  and  _318
REMARK  138  A    between atoms: _317  and  _320
REMARK  139  A    between atoms: _320  and  _321
REMARK  140  A    between atoms: _321  and  _322
REMARK  141  A    between atoms: _327  and  _329
REMARK  142  A    between atoms: _329  and  _330
REMARK  143  A    between atoms: _332  and  _334
REMARK  144  A    between atoms: _334  and  _335
REMARK  145  A    between atoms: _334  and  _337
REMARK  146  A    between atoms: _337  and  _338
REMARK  147  A    between atoms: _341  and  _343
REMARK  148  A    between atoms: _343  and  _344
REMARK  149  A    between atoms: _343  and  _346
REMARK  150  A    between atoms: _346  and  _347
REMARK  151  A    between atoms: _349  and  _351
REMARK  152  A    between atoms: _351  and  _352
REMARK  153  A    between atoms: _354  and  _356
REMARK  154  A    between atoms: _356  and  _357
REMARK  155  A    between atoms: _359  and  _361
REMARK  156  A    between atoms: _361  and  _362
REMARK  157  A    between atoms: _361  and  _364
REMARK  158  A    between atoms: _364  and  _365
REMARK  159  A    between atoms: _370  and  _372
REMARK  160  A    between atoms: _372  and  _373
REMARK  161  A    between atoms: _372  and  _375
REMARK  162  A    between atoms: _375  and  _376
REMARK  163  A    between atoms: _379  and  _381
REMARK  164  A    between atoms: _381  and  _382
REMARK  165  A    between atoms: _381  and  _384
REMARK  166  A    between atoms: _387  and  _389
REMARK  167  A    between atoms: _389  and  _390
REMARK  168  A    between atoms: _389  and  _392
REMARK  169  A    between atoms: _392  and  _393
REMARK  170  A    between atoms: _395  and  _397
REMARK  171  A    between atoms: _397  and  _398
REMARK  172  A    between atoms: _397  and  _400
REMARK  173  A    between atoms: _400  and  _401
REMARK  174  A    between atoms: _411  and  _413
REMARK  175  A    between atoms: _413  and  _414
REMARK  176  A    between atoms: _416  and  _418
REMARK  177  A    between atoms: _418  and  _419
REMARK  178  A    between atoms: _418  and  _421
REMARK  179  A    between atoms: _421  and  _422
REMARK  180  A    between atoms: _422  and  _423
REMARK  181  A    between atoms: _426  and  _428
REMARK  182  A    between atoms: _428  and  _429
REMARK  183  A    between atoms: _431  and  _433
REMARK  184  A    between atoms: _433  and  _434
REMARK  185  A    between atoms: _433  and  _436
REMARK  186  A    between atoms: _436  and  _437
REMARK  187  A    between atoms: _438  and  _440
REMARK  188  A    between atoms: _440  and  _441
REMARK  189  A    between atoms: _444  and  _446
REMARK  190  A    between atoms: _446  and  _447
REMARK  191  A    between atoms: _446  and  _449
REMARK  192  A    between atoms: _449  and  _450
REMARK  193  A    between atoms: _450  and  _451
REMARK  194  A    between atoms: _451  and  _452
REMARK  195  A    between atoms: _461  and  _463
REMARK  196  A    between atoms: _463  and  _464
REMARK  197  A    between atoms: _463  and  _466
REMARK  198  A    between atoms: _466  and  _467
REMARK  199  A    between atoms: _467  and  _468
REMARK  200  A    between atoms: _468  and  _469
REMARK  201  A    between atoms: _469  and  _470
REMARK  202  A    between atoms: _474  and  _476
REMARK  203  A    between atoms: _476  and  _477
REMARK  204  A    between atoms: _476  and  _479
REMARK  205  A    between atoms: _479  and  _480
REMARK  206  A    between atoms: _485  and  _486
REMARK  207  A    between atoms: _488  and  _490
REMARK  208  A    between atoms: _490  and  _491
REMARK  209  A    between atoms: _493  and  _495
REMARK  210  A    between atoms: _495  and  _496
REMARK  211  A    between atoms: _495  and  _498
REMARK  212  A    between atoms: _498  and  _499
REMARK  213  A    between atoms: _502  and  _504
REMARK  214  A    between atoms: _504  and  _505
REMARK  215  A    between atoms: _504  and  _507
REMARK  216  A    between atoms: _507  and  _508
REMARK  217  A    between atoms: _513  and  _514
REMARK  218  A    between atoms: _516  and  _518
REMARK  219  A    between atoms: _518  and  _519
REMARK  220  A    between atoms: _518  and  _521
REMARK  221  A    between atoms: _521  and  _522
REMARK                            x       y       z     vdW  Elec       q    Type
REMARK                         _______ _______ _______ _____ _____    ______ ____
ROOT
ATOM      1  O   HOH     1      13.638  64.841  -2.161  0.00  0.00    +0.000 OA
ENDROOT
TORSDOF 0
REMARK  Name = ../refined-set-2016/2xbx/2xbx_pocket.pdb
REMARK  221 active torsions:
REMARK  status: ('A' for Active; 'I' for Inactive)
REMARK    1  A    between atoms: _1  and  _3
REMARK    2  A    between atoms: _3  and  _4
REMARK    3  A    between atoms: _3  and  _6
REMARK    4  A    between atoms: _9  and  _11
REMARK    5  A    between atoms: _11  and  _12
REMARK    6  A    between atoms: _11  and  _14
REMARK    7  A    between atoms: _14  and  _15
REMARK    8  A    between atoms: _20  and  _22
REMARK    9  A    between atoms: _22  and  _23
REMARK   10  A    between atoms: _22  and  _25
REMARK   11  A    between atoms: _25  and  _26
REMARK   12  A    between atoms: _26  and  _27
REMARK   13  A    between atoms: _32  and  _34
REMARK   14  A    between atoms: _34  and  _35
REMARK   15  A    between atoms: _34  and  _37
REMARK   16  A    between atoms: _37  and  _38
REMARK   17  A    between atoms: _44  and  _46
REMARK   18  A    between atoms: _46  and  _47
REMARK   19  A    between atoms: _46  and  _49
REMARK   20  A    between atoms: _49  and  _50
REMARK   21  A    between atoms: _53  and  _55
REMARK   22  A    between atoms: _55  and  _56
REMARK   23  A    between atoms: _55  and  _58
REMARK   24  A    between atoms: _58  and  _59
REMARK   25  A    between atoms: _59  and  _60
REMARK   26  A    between atoms: _60  and  _61
REMARK   27  A    between atoms: _61  and  _62
REMARK   28  A    between atoms: _66  and  _68
REMARK   29  A    between atoms: _68  and  _69
REMARK   30  A    between atoms: _68  and  _71
REMARK   31  A    between atoms: _71  and  _72
REMARK   32  A    between atoms: _72  and  _73
REMARK   33  A    between atoms: _76  and  _78
REMARK   34  A    between atoms: _78  and  _79
REMARK   35  A    between atoms: _78  and  _81
REMARK   36  A    between atoms: _81  and  _82
REMARK   37  A    between atoms: _85  and  _87
REMARK   38  A    between atoms: _87  and  _88
REMARK   39  A    between atoms: _87  and  _90
REMARK   40  A    between atoms: _90  and  _91
REMARK   41  A    between atoms: _96  and  _97
REMARK   42  A    between atoms: _99  and  _101
REMARK   43  A    between atoms: _101  and  _102
REMARK   44  A    between atoms: _101  and  _104
REMARK   45  A    between atoms: _104  and  _105
REMARK   46  A    between atoms: _108  and  _110
REMARK   47  A    between atoms: _110  and  _111
REMARK   48  A    between atoms: _110  and  _113
REMARK   49  A    between atoms: _113  and  _114
REMARK   50  A    between atoms: _117  and  _119
REMARK   51  A    between atoms: _119  and  _120
REMARK   52  A    between atoms: _119  and  _122
REMARK   53  A    between atoms: _125  and  _127
REMARK   54  A    between atoms: _127  and  _128
REMARK   55  A    between atoms: _127  and  _130
REMARK   56  A    between atoms: _130  and  _131
REMARK   57  A    between atoms: _131  and  _132
REMARK   58  A    between atoms: _132  and  _133
REMARK   59  A    between atoms: _142  and  _144
REMARK   60  A    between atoms: _144  and  _145
REMARK   61  A    between atoms: _144  and  _147
REMARK   62  A    between atoms: _147  and  _148
REMARK   63  A    between atoms: _153  and  _155
REMARK   64  A    between atoms: _155  and  _156
REMARK   65  A    between atoms: _155  and  _158
REMARK   66  A    between atoms: _158  and  _159
REMARK   67  A    between atoms: _159  and  _160
REMARK   68  A    between atoms: _163  and  _165
REMARK   69  A    between atoms: _165  and  _166
REMARK   70  A    between atoms: _165  and  _168
REMARK   71  A    between atoms: _168  and  _169
REMARK   72  A    between atoms: _169  and  _170
REMARK   73  A    between atoms: _170  and  _171
REMARK   74  A    between atoms: _171  and  _172
REMARK   75  A    between atoms: _176  and  _178
REMARK   76  A    between atoms: _178  and  _179
REMARK   77  A    between atoms: _181  and  _183
REMARK   78  A    between atoms: _183  and  _184
REMARK   79  A    between atoms: _183  and  _186
REMARK   80  A    between atoms: _189  and  _191
REMARK   81  A    between atoms: _191  and  _192
REMARK   82  A    between atoms: _191  and  _194
REMARK   83  A    between atoms: _194  and  _195
REMARK   84  A    between atoms: _197  and  _199
REMARK   85  A    between atoms: _199  and  _200
REMARK   86  A    between atoms: _199  and  _202
REMARK   87  A    between atoms: _202  and  _203
REMARK   88  A    between atoms: _205  and  _207
REMARK   89  A    between atoms: _207  and  _208
REMARK   90  A    between atoms: _207  and  _210
REMARK   91  A    between atoms: _210  and  _211
REMARK   92  A    between atoms: _217  and  _219
REMARK   93  A    between atoms: _219  and  _220
REMARK   94  A    between atoms: _219  and  _222
REMARK   95  A    between atoms: _222  and  _223
REMARK   96  A    between atoms: _226  and  _228
REMARK   97  A    between atoms: _228  and  _229
REMARK   98  A    between atoms: _228  and  _231
REMARK   99  A    between atoms: _231  and  _232
REMARK  100  A    between atoms: _235  and  _237
REMARK  101  A    between atoms: _237  and  _238
REMARK  102  A    between atoms: _237  and  _240
REMARK  103  A    between atoms: _240  and  _241
REMARK  104  A    between atoms: _244  and  _246
REMARK  105  A    between atoms: _246  and  _247
REMARK  106  A    between atoms: _246  and  _249
REMARK  107  A    between atoms: _249  and  _250
REMARK  108  A    between atoms: _250  and  _251
REMARK  109  A    between atoms: _253  and  _255
REMARK  110  A    between atoms: _255  and  _256
REMARK  111  A    between atoms: _255  and  _258
REMARK  112  A    between atoms: _258  and  _259
REMARK  113  A    between atoms: _265  and  _267
REMARK  114  A    between atoms: _267  and  _268
REMARK  115  A    between atoms: _267  and  _270
REMARK  116  A    between atoms: _272  and  _274
REMARK  117  A    between atoms: _274  and  _275
REMARK  118  A    between atoms: _278  and  _280
REMARK  119  A    between atoms: _280  and  _281
REMARK  120  A    between atoms: _283  and  _285
REMARK  121  A    between atoms: _285  and  _286
REMARK  122  A    between atoms: _285  and  _288
REMARK  123  A    between atoms: _288  and  _289
REMARK  124  A    between atoms: _289  and  _290
REMARK  125  A    between atoms: _293  and  _295
REMARK  126  A    between atoms: _295  and  _296
REMARK  127  A    between atoms: _295  and  _298
REMARK  128  A    between atoms: _298  and  _299
REMARK  129  A    between atoms: _302  and  _304
REMARK  130  A    between atoms: _304  and  _305
REMARK  131  A    between atoms: _308  and  _310
REMARK  132  A    between atoms: _310  and  _311
REMARK  133  A    between atoms: _310  and  _313
REMARK  134  A    between atoms: _313  and  _314
REMARK  135  A    between atoms: _314  and  _437
REMARK  136  A    between atoms: _315  and  _317
REMARK  137  A    between atoms: _317  and  _318
REMARK  138  A    between atoms: _317  and  _320
REMARK  139  A    between atoms: _320  and  _321
REMARK  140  A    between atoms: _321  and  _322
REMARK  141  A    between atoms: _327  and  _329
REMARK  142  A    between atoms: _329  and  _330
REMARK  143  A    between atoms: _332  and  _334
REMARK  144  A    between atoms: _334  and  _335
REMARK  145  A    between atoms: _334  and  _337
REMARK  146  A    between atoms: _337  and  _338
REMARK  147  A    between atoms: _341  and  _343
REMARK  148  A    between atoms: _343  and  _344
REMARK  149  A    between atoms: _343  and  _346
REMARK  150  A    between atoms: _346  and  _347
REMARK  151  A    between atoms: _349  and  _351
REMARK  152  A    between atoms: _351  and  _352
REMARK  153  A    between atoms: _354  and  _356
REMARK  154  A    between atoms: _356  and  _357
REMARK  155  A    between atoms: _359  and  _361
REMARK  156  A    between atoms: _361  and  _362
REMARK  157  A    between atoms: _361  and  _364
REMARK  158  A    between atoms: _364  and  _365
REMARK  159  A    between atoms: _370  and  _372
REMARK  160  A    between atoms: _372  and  _373
REMARK  161  A    between atoms: _372  and  _375
REMARK  162  A    between atoms: _375  and  _376
REMARK  163  A    between atoms: _379  and  _381
REMARK  164  A    between atoms: _381  and  _382
REMARK  165  A    between atoms: _381  and  _384
REMARK  166  A    between atoms: _387  and  _389
REMARK  167  A    between atoms: _389  and  _390
REMARK  168  A    between atoms: _389  and  _392
REMARK  169  A    between atoms: _392  and  _393
REMARK  170  A    between atoms: _395  and  _397
REMARK  171  A    between atoms: _397  and  _398
REMARK  172  A    between atoms: _397  and  _400
REMARK  173  A    between atoms: _400  and  _401
REMARK  174  A    between atoms: _411  and  _413
REMARK  175  A    between atoms: _413  and  _414
REMARK  176  A    between atoms: _416  and  _418
REMARK  177  A    between atoms: _418  and  _419
REMARK  178  A    between atoms: _418  and  _421
REMARK  179  A    between atoms: _421  and  _422
REMARK  180  A    between atoms: _422  and  _423
REMARK  181  A    between atoms: _426  and  _428
REMARK  182  A    between atoms: _428  and  _429
REMARK  183  A    between atoms: _431  and  _433
REMARK  184  A    between atoms: _433  and  _434
REMARK  185  A    between atoms: _433  and  _436
REMARK  186  A    between atoms: _436  and  _437
REMARK  187  A    between atoms: _438  and  _440
REMARK  188  A    between atoms: _440  and  _441
REMARK  189  A    between atoms: _444  and  _446
REMARK  190  A    between atoms: _446  and  _447
REMARK  191  A    between atoms: _446  and  _449
REMARK  192  A    between atoms: _449  and  _450
REMARK  193  A    between atoms: _450  and  _451
REMARK  194  A    between atoms: _451  and  _452
REMARK  195  A    between atoms: _461  and  _463
REMARK  196  A    between atoms: _463  and  _464
REMARK  197  A    between atoms: _463  and  _466
REMARK  198  A    between atoms: _466  and  _467
REMARK  199  A    between atoms: _467  and  _468
REMARK  200  A    between atoms: _468  and  _469
REMARK  201  A    between atoms: _469  and  _470
REMARK  202  A    between atoms: _474  and  _476
REMARK  203  A    between atoms: _476  and  _477
REMARK  204  A    between atoms: _476  and  _479
REMARK  205  A    between atoms: _479  and  _480
REMARK  206  A    between atoms: _485  and  _486
REMARK  207  A    between atoms: _488  and  _490
REMARK  208  A    between atoms: _490  and  _491
REMARK  209  A    between atoms: _493  and  _495
REMARK  210  A    between atoms: _495  and  _496
REMARK  211  A    between atoms: _495  and  _498
REMARK  212  A    between atoms: _498  and  _499
REMARK  213  A    between atoms: _502  and  _504
REMARK  214  A    between atoms: _504  and  _505
REMARK  215  A    between atoms: _504  and  _507
REMARK  216  A    between atoms: _507  and  _508
REMARK  217  A    between atoms: _513  and  _514
REMARK  218  A    between atoms: _516  and  _518
REMARK  219  A    between atoms: _518  and  _519
REMARK  220  A    between atoms: _518  and  _521
REMARK  221  A    between atoms: _521  and  _522
REMARK                            x       y       z     vdW  Elec       q    Type
REMARK                         _______ _______ _______ _____ _____    ______ ____
ROOT
ATOM      1  O   HOH     1       1.864  56.078   0.914  0.00  0.00    +0.000 OA
ENDROOT
TORSDOF 0
REMARK  Name = ../refined-set-2016/2xbx/2xbx_pocket.pdb
REMARK  221 active torsions:
REMARK  status: ('A' for Active; 'I' for Inactive)
REMARK    1  A    between atoms: _1  and  _3
REMARK    2  A    between atoms: _3  and  _4
REMARK    3  A    between atoms: _3  and  _6
REMARK    4  A    between atoms: _9  and  _11
REMARK    5  A    between atoms: _11  and  _12
REMARK    6  A    between atoms: _11  and  _14
REMARK    7  A    between atoms: _14  and  _15
REMARK    8  A    between atoms: _20  and  _22
REMARK    9  A    between atoms: _22  and  _23
REMARK   10  A    between atoms: _22  and  _25
REMARK   11  A    between atoms: _25  and  _26
REMARK   12  A    between atoms: _26  and  _27
REMARK   13  A    between atoms: _32  and  _34
REMARK   14  A    between atoms: _34  and  _35
REMARK   15  A    between atoms: _34  and  _37
REMARK   16  A    between atoms: _37  and  _38
REMARK   17  A    between atoms: _44  and  _46
REMARK   18  A    between atoms: _46  and  _47
REMARK   19  A    between atoms: _46  and  _49
REMARK   20  A    between atoms: _49  and  _50
REMARK   21  A    between atoms: _53  and  _55
REMARK   22  A    between atoms: _55  and  _56
REMARK   23  A    between atoms: _55  and  _58
REMARK   24  A    between atoms: _58  and  _59
REMARK   25  A    between atoms: _59  and  _60
REMARK   26  A    between atoms: _60  and  _61
REMARK   27  A    between atoms: _61  and  _62
REMARK   28  A    between atoms: _66  and  _68
REMARK   29  A    between atoms: _68  and  _69
REMARK   30  A    between atoms: _68  and  _71
REMARK   31  A    between atoms: _71  and  _72
REMARK   32  A    between atoms: _72  and  _73
REMARK   33  A    between atoms: _76  and  _78
REMARK   34  A    between atoms: _78  and  _79
REMARK   35  A    between atoms: _78  and  _81
REMARK   36  A    between atoms: _81  and  _82
REMARK   37  A    between atoms: _85  and  _87
REMARK   38  A    between atoms: _87  and  _88
REMARK   39  A    between atoms: _87  and  _90
REMARK   40  A    between atoms: _90  and  _91
REMARK   41  A    between atoms: _96  and  _97
REMARK   42  A    between atoms: _99  and  _101
REMARK   43  A    between atoms: _101  and  _102
REMARK   44  A    between atoms: _101  and  _104
REMARK   45  A    between atoms: _104  and  _105
REMARK   46  A    between atoms: _108  and  _110
REMARK   47  A    between atoms: _110  and  _111
REMARK   48  A    between atoms: _110  and  _113
REMARK   49  A    between atoms: _113  and  _114
REMARK   50  A    between atoms: _117  and  _119
REMARK   51  A    between atoms: _119  and  _120
REMARK   52  A    between atoms: _119  and  _122
REMARK   53  A    between atoms: _125  and  _127
REMARK   54  A    between atoms: _127  and  _128
REMARK   55  A    between atoms: _127  and  _130
REMARK   56  A    between atoms: _130  and  _131
REMARK   57  A    between atoms: _131  and  _132
REMARK   58  A    between atoms: _132  and  _133
REMARK   59  A    between atoms: _142  and  _144
REMARK   60  A    between atoms: _144  and  _145
REMARK   61  A    between atoms: _144  and  _147
REMARK   62  A    between atoms: _147  and  _148
REMARK   63  A    between atoms: _153  and  _155
REMARK   64  A    between atoms: _155  and  _156
REMARK   65  A    between atoms: _155  and  _158
REMARK   66  A    between atoms: _158  and  _159
REMARK   67  A    between atoms: _159  and  _160
REMARK   68  A    between atoms: _163  and  _165
REMARK   69  A    between atoms: _165  and  _166
REMARK   70  A    between atoms: _165  and  _168
REMARK   71  A    between atoms: _168  and  _169
REMARK   72  A    between atoms: _169  and  _170
REMARK   73  A    between atoms: _170  and  _171
REMARK   74  A    between atoms: _171  and  _172
REMARK   75  A    between atoms: _176  and  _178
REMARK   76  A    between atoms: _178  and  _179
REMARK   77  A    between atoms: _181  and  _183
REMARK   78  A    between atoms: _183  and  _184
REMARK   79  A    between atoms: _183  and  _186
REMARK   80  A    between atoms: _189  and  _191
REMARK   81  A    between atoms: _191  and  _192
REMARK   82  A    between atoms: _191  and  _194
REMARK   83  A    between atoms: _194  and  _195
REMARK   84  A    between atoms: _197  and  _199
REMARK   85  A    between atoms: _199  and  _200
REMARK   86  A    between atoms: _199  and  _202
REMARK   87  A    between atoms: _202  and  _203
REMARK   88  A    between atoms: _205  and  _207
REMARK   89  A    between atoms: _207  and  _208
REMARK   90  A    between atoms: _207  and  _210
REMARK   91  A    between atoms: _210  and  _211
REMARK   92  A    between atoms: _217  and  _219
REMARK   93  A    between atoms: _219  and  _220
REMARK   94  A    between atoms: _219  and  _222
REMARK   95  A    between atoms: _222  and  _223
REMARK   96  A    between atoms: _226  and  _228
REMARK   97  A    between atoms: _228  and  _229
REMARK   98  A    between atoms: _228  and  _231
REMARK   99  A    between atoms: _231  and  _232
REMARK  100  A    between atoms: _235  and  _237
REMARK  101  A    between atoms: _237  and  _238
REMARK  102  A    between atoms: _237  and  _240
REMARK  103  A    between atoms: _240  and  _241
REMARK  104  A    between atoms: _244  and  _246
REMARK  105  A    between atoms: _246  and  _247
REMARK  106  A    between atoms: _246  and  _249
REMARK  107  A    between atoms: _249  and  _250
REMARK  108  A    between atoms: _250  and  _251
REMARK  109  A    between atoms: _253  and  _255
REMARK  110  A    between atoms: _255  and  _256
REMARK  111  A    between atoms: _255  and  _258
REMARK  112  A    between atoms: _258  and  _259
REMARK  113  A    between atoms: _265  and  _267
REMARK  114  A    between atoms: _267  and  _268
REMARK  115  A    between atoms: _267  and  _270
REMARK  116  A    between atoms: _272  and  _274
REMARK  117  A    between atoms: _274  and  _275
REMARK  118  A    between atoms: _278  and  _280
REMARK  119  A    between atoms: _280  and  _281
REMARK  120  A    between atoms: _283  and  _285
REMARK  121  A    between atoms: _285  and  _286
REMARK  122  A    between atoms: _285  and  _288
REMARK  123  A    between atoms: _288  and  _289
REMARK  124  A    between atoms: _289  and  _290
REMARK  125  A    between atoms: _293  and  _295
REMARK  126  A    between atoms: _295  and  _296
REMARK  127  A    between atoms: _295  and  _298
REMARK  128  A    between atoms: _298  and  _299
REMARK  129  A    between atoms: _302  and  _304
REMARK  130  A    between atoms: _304  and  _305
REMARK  131  A    between atoms: _308  and  _310
REMARK  132  A    between atoms: _310  and  _311
REMARK  133  A    between atoms: _310  and  _313
REMARK  134  A    between atoms: _313  and  _314
REMARK  135  A    between atoms: _314  and  _437
REMARK  136  A    between atoms: _315  and  _317
REMARK  137  A    between atoms: _317  and  _318
REMARK  138  A    between atoms: _317  and  _320
REMARK  139  A    between atoms: _320  and  _321
REMARK  140  A    between atoms: _321  and  _322
REMARK  141  A    between atoms: _327  and  _329
REMARK  142  A    between atoms: _329  and  _330
REMARK  143  A    between atoms: _332  and  _334
REMARK  144  A    between atoms: _334  and  _335
REMARK  145  A    between atoms: _334  and  _337
REMARK  146  A    between atoms: _337  and  _338
REMARK  147  A    between atoms: _341  and  _343
REMARK  148  A    between atoms: _343  and  _344
REMARK  149  A    between atoms: _343  and  _346
REMARK  150  A    between atoms: _346  and  _347
REMARK  151  A    between atoms: _349  and  _351
REMARK  152  A    between atoms: _351  and  _352
REMARK  153  A    between atoms: _354  and  _356
REMARK  154  A    between atoms: _356  and  _357
REMARK  155  A    between atoms: _359  and  _361
REMARK  156  A    between atoms: _361  and  _362
REMARK  157  A    between atoms: _361  and  _364
REMARK  158  A    between atoms: _364  and  _365
REMARK  159  A    between atoms: _370  and  _372
REMARK  160  A    between atoms: _372  and  _373
REMARK  161  A    between atoms: _372  and  _375
REMARK  162  A    between atoms: _375  and  _376
REMARK  163  A    between atoms: _379  and  _381
REMARK  164  A    between atoms: _381  and  _382
REMARK  165  A    between atoms: _381  and  _384
REMARK  166  A    between atoms: _387  and  _389
REMARK  167  A    between atoms: _389  and  _390
REMARK  168  A    between atoms: _389  and  _392
REMARK  169  A    between atoms: _392  and  _393
REMARK  170  A    between atoms: _395  and  _397
REMARK  171  A    between atoms: _397  and  _398
REMARK  172  A    between atoms: _397  and  _400
REMARK  173  A    between atoms: _400  and  _401
REMARK  174  A    between atoms: _411  and  _413
REMARK  175  A    between atoms: _413  and  _414
REMARK  176  A    between atoms: _416  and  _418
REMARK  177  A    between atoms: _418  and  _419
REMARK  178  A    between atoms: _418  and  _421
REMARK  179  A    between atoms: _421  and  _422
REMARK  180  A    between atoms: _422  and  _423
REMARK  181  A    between atoms: _426  and  _428
REMARK  182  A    between atoms: _428  and  _429
REMARK  183  A    between atoms: _431  and  _433
REMARK  184  A    between atoms: _433  and  _434
REMARK  185  A    between atoms: _433  and  _436
REMARK  186  A    between atoms: _436  and  _437
REMARK  187  A    between atoms: _438  and  _440
REMARK  188  A    between atoms: _440  and  _441
REMARK  189  A    between atoms: _444  and  _446
REMARK  190  A    between atoms: _446  and  _447
REMARK  191  A    between atoms: _446  and  _449
REMARK  192  A    between atoms: _449  and  _450
REMARK  193  A    between atoms: _450  and  _451
REMARK  194  A    between atoms: _451  and  _452
REMARK  195  A    between atoms: _461  and  _463
REMARK  196  A    between atoms: _463  and  _464
REMARK  197  A    between atoms: _463  and  _466
REMARK  198  A    between atoms: _466  and  _467
REMARK  199  A    between atoms: _467  and  _468
REMARK  200  A    between atoms: _468  and  _469
REMARK  201  A    between atoms: _469  and  _470
REMARK  202  A    between atoms: _474  and  _476
REMARK  203  A    between atoms: _476  and  _477
REMARK  204  A    between atoms: _476  and  _479
REMARK  205  A    between atoms: _479  and  _480
REMARK  206  A    between atoms: _485  and  _486
REMARK  207  A    between atoms: _488  and  _490
REMARK  208  A    between atoms: _490  and  _491
REMARK  209  A    between atoms: _493  and  _495
REMARK  210  A    between atoms: _495  and  _496
REMARK  211  A    between atoms: _495  and  _498
REMARK  212  A    between atoms: _498  and  _499
REMARK  213  A    between atoms: _502  and  _504
REMARK  214  A    between atoms: _504  and  _505
REMARK  215  A    between atoms: _504  and  _507
REMARK  216  A    between atoms: _507  and  _508
REMARK  217  A    between atoms: _513  and  _514
REMARK  218  A    between atoms: _516  and  _518
REMARK  219  A    between atoms: _518  and  _519
REMARK  220  A    between atoms: _518  and  _521
REMARK  221  A    between atoms: _521  and  _522
REMARK                            x       y       z     vdW  Elec       q    Type
REMARK                         _______ _______ _______ _____ _____    ______ ____
ROOT
ATOM      1  O   HOH     1       6.896  53.003   4.800  0.00  0.00    +0.000 OA
ENDROOT
TORSDOF 0
REMARK  Name = ../refined-set-2016/2xbx/2xbx_pocket.pdb
REMARK  221 active torsions:
REMARK  status: ('A' for Active; 'I' for Inactive)
REMARK    1  A    between atoms: _1  and  _3
REMARK    2  A    between atoms: _3  and  _4
REMARK    3  A    between atoms: _3  and  _6
REMARK    4  A    between atoms: _9  and  _11
REMARK    5  A    between atoms: _11  and  _12
REMARK    6  A    between atoms: _11  and  _14
REMARK    7  A    between atoms: _14  and  _15
REMARK    8  A    between atoms: _20  and  _22
REMARK    9  A    between atoms: _22  and  _23
REMARK   10  A    between atoms: _22  and  _25
REMARK   11  A    between atoms: _25  and  _26
REMARK   12  A    between atoms: _26  and  _27
REMARK   13  A    between atoms: _32  and  _34
REMARK   14  A    between atoms: _34  and  _35
REMARK   15  A    between atoms: _34  and  _37
REMARK   16  A    between atoms: _37  and  _38
REMARK   17  A    between atoms: _44  and  _46
REMARK   18  A    between atoms: _46  and  _47
REMARK   19  A    between atoms: _46  and  _49
REMARK   20  A    between atoms: _49  and  _50
REMARK   21  A    between atoms: _53  and  _55
REMARK   22  A    between atoms: _55  and  _56
REMARK   23  A    between atoms: _55  and  _58
REMARK   24  A    between atoms: _58  and  _59
REMARK   25  A    between atoms: _59  and  _60
REMARK   26  A    between atoms: _60  and  _61
REMARK   27  A    between atoms: _61  and  _62
REMARK   28  A    between atoms: _66  and  _68
REMARK   29  A    between atoms: _68  and  _69
REMARK   30  A    between atoms: _68  and  _71
REMARK   31  A    between atoms: _71  and  _72
REMARK   32  A    between atoms: _72  and  _73
REMARK   33  A    between atoms: _76  and  _78
REMARK   34  A    between atoms: _78  and  _79
REMARK   35  A    between atoms: _78  and  _81
REMARK   36  A    between atoms: _81  and  _82
REMARK   37  A    between atoms: _85  and  _87
REMARK   38  A    between atoms: _87  and  _88
REMARK   39  A    between atoms: _87  and  _90
REMARK   40  A    between atoms: _90  and  _91
REMARK   41  A    between atoms: _96  and  _97
REMARK   42  A    between atoms: _99  and  _101
REMARK   43  A    between atoms: _101  and  _102
REMARK   44  A    between atoms: _101  and  _104
REMARK   45  A    between atoms: _104  and  _105
REMARK   46  A    between atoms: _108  and  _110
REMARK   47  A    between atoms: _110  and  _111
REMARK   48  A    between atoms: _110  and  _113
REMARK   49  A    between atoms: _113  and  _114
REMARK   50  A    between atoms: _117  and  _119
REMARK   51  A    between atoms: _119  and  _120
REMARK   52  A    between atoms: _119  and  _122
REMARK   53  A    between atoms: _125  and  _127
REMARK   54  A    between atoms: _127  and  _128
REMARK   55  A    between atoms: _127  and  _130
REMARK   56  A    between atoms: _130  and  _131
REMARK   57  A    between atoms: _131  and  _132
REMARK   58  A    between atoms: _132  and  _133
REMARK   59  A    between atoms: _142  and  _144
REMARK   60  A    between atoms: _144  and  _145
REMARK   61  A    between atoms: _144  and  _147
REMARK   62  A    between atoms: _147  and  _148
REMARK   63  A    between atoms: _153  and  _155
REMARK   64  A    between atoms: _155  and  _156
REMARK   65  A    between atoms: _155  and  _158
REMARK   66  A    between atoms: _158  and  _159
REMARK   67  A    between atoms: _159  and  _160
REMARK   68  A    between atoms: _163  and  _165
REMARK   69  A    between atoms: _165  and  _166
REMARK   70  A    between atoms: _165  and  _168
REMARK   71  A    between atoms: _168  and  _169
REMARK   72  A    between atoms: _169  and  _170
REMARK   73  A    between atoms: _170  and  _171
REMARK   74  A    between atoms: _171  and  _172
REMARK   75  A    between atoms: _176  and  _178
REMARK   76  A    between atoms: _178  and  _179
REMARK   77  A    between atoms: _181  and  _183
REMARK   78  A    between atoms: _183  and  _184
REMARK   79  A    between atoms: _183  and  _186
REMARK   80  A    between atoms: _189  and  _191
REMARK   81  A    between atoms: _191  and  _192
REMARK   82  A    between atoms: _191  and  _194
REMARK   83  A    between atoms: _194  and  _195
REMARK   84  A    between atoms: _197  and  _199
REMARK   85  A    between atoms: _199  and  _200
REMARK   86  A    between atoms: _199  and  _202
REMARK   87  A    between atoms: _202  and  _203
REMARK   88  A    between atoms: _205  and  _207
REMARK   89  A    between atoms: _207  and  _208
REMARK   90  A    between atoms: _207  and  _210
REMARK   91  A    between atoms: _210  and  _211
REMARK   92  A    between atoms: _217  and  _219
REMARK   93  A    between atoms: _219  and  _220
REMARK   94  A    between atoms: _219  and  _222
REMARK   95  A    between atoms: _222  and  _223
REMARK   96  A    between atoms: _226  and  _228
REMARK   97  A    between atoms: _228  and  _229
REMARK   98  A    between atoms: _228  and  _231
REMARK   99  A    between atoms: _231  and  _232
REMARK  100  A    between atoms: _235  and  _237
REMARK  101  A    between atoms: _237  and  _238
REMARK  102  A    between atoms: _237  and  _240
REMARK  103  A    between atoms: _240  and  _241
REMARK  104  A    between atoms: _244  and  _246
REMARK  105  A    between atoms: _246  and  _247
REMARK  106  A    between atoms: _246  and  _249
REMARK  107  A    between atoms: _249  and  _250
REMARK  108  A    between atoms: _250  and  _251
REMARK  109  A    between atoms: _253  and  _255
REMARK  110  A    between atoms: _255  and  _256
REMARK  111  A    between atoms: _255  and  _258
REMARK  112  A    between atoms: _258  and  _259
REMARK  113  A    between atoms: _265  and  _267
REMARK  114  A    between atoms: _267  and  _268
REMARK  115  A    between atoms: _267  and  _270
REMARK  116  A    between atoms: _272  and  _274
REMARK  117  A    between atoms: _274  and  _275
REMARK  118  A    between atoms: _278  and  _280
REMARK  119  A    between atoms: _280  and  _281
REMARK  120  A    between atoms: _283  and  _285
REMARK  121  A    between atoms: _285  and  _286
REMARK  122  A    between atoms: _285  and  _288
REMARK  123  A    between atoms: _288  and  _289
REMARK  124  A    between atoms: _289  and  _290
REMARK  125  A    between atoms: _293  and  _295
REMARK  126  A    between atoms: _295  and  _296
REMARK  127  A    between atoms: _295  and  _298
REMARK  128  A    between atoms: _298  and  _299
REMARK  129  A    between atoms: _302  and  _304
REMARK  130  A    between atoms: _304  and  _305
REMARK  131  A    between atoms: _308  and  _310
REMARK  132  A    between atoms: _310  and  _311
REMARK  133  A    between atoms: _310  and  _313
REMARK  134  A    between atoms: _313  and  _314
REMARK  135  A    between atoms: _314  and  _437
REMARK  136  A    between atoms: _315  and  _317
REMARK  137  A    between atoms: _317  and  _318
REMARK  138  A    between atoms: _317  and  _320
REMARK  139  A    between atoms: _320  and  _321
REMARK  140  A    between atoms: _321  and  _322
REMARK  141  A    between atoms: _327  and  _329
REMARK  142  A    between atoms: _329  and  _330
REMARK  143  A    between atoms: _332  and  _334
REMARK  144  A    between atoms: _334  and  _335
REMARK  145  A    between atoms: _334  and  _337
REMARK  146  A    between atoms: _337  and  _338
REMARK  147  A    between atoms: _341  and  _343
REMARK  148  A    between atoms: _343  and  _344
REMARK  149  A    between atoms: _343  and  _346
REMARK  150  A    between atoms: _346  and  _347
REMARK  151  A    between atoms: _349  and  _351
REMARK  152  A    between atoms: _351  and  _352
REMARK  153  A    between atoms: _354  and  _356
REMARK  154  A    between atoms: _356  and  _357
REMARK  155  A    between atoms: _359  and  _361
REMARK  156  A    between atoms: _361  and  _362
REMARK  157  A    between atoms: _361  and  _364
REMARK  158  A    between atoms: _364  and  _365
REMARK  159  A    between atoms: _370  and  _372
REMARK  160  A    between atoms: _372  and  _373
REMARK  161  A    between atoms: _372  and  _375
REMARK  162  A    between atoms: _375  and  _376
REMARK  163  A    between atoms: _379  and  _381
REMARK  164  A    between atoms: _381  and  _382
REMARK  165  A    between atoms: _381  and  _384
REMARK  166  A    between atoms: _387  and  _389
REMARK  167  A    between atoms: _389  and  _390
REMARK  168  A    between atoms: _389  and  _392
REMARK  169  A    between atoms: _392  and  _393
REMARK  170  A    between atoms: _395  and  _397
REMARK  171  A    between atoms: _397  and  _398
REMARK  172  A    between atoms: _397  and  _400
REMARK  173  A    between atoms: _400  and  _401
REMARK  174  A    between atoms: _411  and  _413
REMARK  175  A    between atoms: _413  and  _414
REMARK  176  A    between atoms: _416  and  _418
REMARK  177  A    between atoms: _418  and  _419
REMARK  178  A    between atoms: _418  and  _421
REMARK  179  A    between atoms: _421  and  _422
REMARK  180  A    between atoms: _422  and  _423
REMARK  181  A    between atoms: _426  and  _428
REMARK  182  A    between atoms: _428  and  _429
REMARK  183  A    between atoms: _431  and  _433
REMARK  184  A    between atoms: _433  and  _434
REMARK  185  A    between atoms: _433  and  _436
REMARK  186  A    between atoms: _436  and  _437
REMARK  187  A    between atoms: _438  and  _440
REMARK  188  A    between atoms: _440  and  _441
REMARK  189  A    between atoms: _444  and  _446
REMARK  190  A    between atoms: _446  and  _447
REMARK  191  A    between atoms: _446  and  _449
REMARK  192  A    between atoms: _449  and  _450
REMARK  193  A    between atoms: _450  and  _451
REMARK  194  A    between atoms: _451  and  _452
REMARK  195  A    between atoms: _461  and  _463
REMARK  196  A    between atoms: _463  and  _464
REMARK  197  A    between atoms: _463  and  _466
REMARK  198  A    between atoms: _466  and  _467
REMARK  199  A    between atoms: _467  and  _468
REMARK  200  A    between atoms: _468  and  _469
REMARK  201  A    between atoms: _469  and  _470
REMARK  202  A    between atoms: _474  and  _476
REMARK  203  A    between atoms: _476  and  _477
REMARK  204  A    between atoms: _476  and  _479
REMARK  205  A    between atoms: _479  and  _480
REMARK  206  A    between atoms: _485  and  _486
REMARK  207  A    between atoms: _488  and  _490
REMARK  208  A    between atoms: _490  and  _491
REMARK  209  A    between atoms: _493  and  _495
REMARK  210  A    between atoms: _495  and  _496
REMARK  211  A    between atoms: _495  and  _498
REMARK  212  A    between atoms: _498  and  _499
REMARK  213  A    between atoms: _502  and  _504
REMARK  214  A    between atoms: _504  and  _505
REMARK  215  A    between atoms: _504  and  _507
REMARK  216  A    between atoms: _507  and  _508
REMARK  217  A    between atoms: _513  and  _514
REMARK  218  A    between atoms: _516  and  _518
REMARK  219  A    between atoms: _518  and  _519
REMARK  220  A    between atoms: _518  and  _521
REMARK  221  A    between atoms: _521  and  _522
REMARK                            x       y       z     vdW  Elec       q    Type
REMARK                         _______ _______ _______ _____ _____    ______ ____
ROOT
ATOM      1  O   HOH     1      10.750  63.021  -1.574  0.00  0.00    +0.000 OA
ENDROOT
TORSDOF 0
REMARK  Name = ../refined-set-2016/2xbx/2xbx_pocket.pdb
REMARK  221 active torsions:
REMARK  status: ('A' for Active; 'I' for Inactive)
REMARK    1  A    between atoms: _1  and  _3
REMARK    2  A    between atoms: _3  and  _4
REMARK    3  A    between atoms: _3  and  _6
REMARK    4  A    between atoms: _9  and  _11
REMARK    5  A    between atoms: _11  and  _12
REMARK    6  A    between atoms: _11  and  _14
REMARK    7  A    between atoms: _14  and  _15
REMARK    8  A    between atoms: _20  and  _22
REMARK    9  A    between atoms: _22  and  _23
REMARK   10  A    between atoms: _22  and  _25
REMARK   11  A    between atoms: _25  and  _26
REMARK   12  A    between atoms: _26  and  _27
REMARK   13  A    between atoms: _32  and  _34
REMARK   14  A    between atoms: _34  and  _35
REMARK   15  A    between atoms: _34  and  _37
REMARK   16  A    between atoms: _37  and  _38
REMARK   17  A    between atoms: _44  and  _46
REMARK   18  A    between atoms: _46  and  _47
REMARK   19  A    between atoms: _46  and  _49
REMARK   20  A    between atoms: _49  and  _50
REMARK   21  A    between atoms: _53  and  _55
REMARK   22  A    between atoms: _55  and  _56
REMARK   23  A    between atoms: _55  and  _58
REMARK   24  A    between atoms: _58  and  _59
REMARK   25  A    between atoms: _59  and  _60
REMARK   26  A    between atoms: _60  and  _61
REMARK   27  A    between atoms: _61  and  _62
REMARK   28  A    between atoms: _66  and  _68
REMARK   29  A    between atoms: _68  and  _69
REMARK   30  A    between atoms: _68  and  _71
REMARK   31  A    between atoms: _71  and  _72
REMARK   32  A    between atoms: _72  and  _73
REMARK   33  A    between atoms: _76  and  _78
REMARK   34  A    between atoms: _78  and  _79
REMARK   35  A    between atoms: _78  and  _81
REMARK   36  A    between atoms: _81  and  _82
REMARK   37  A    between atoms: _85  and  _87
REMARK   38  A    between atoms: _87  and  _88
REMARK   39  A    between atoms: _87  and  _90
REMARK   40  A    between atoms: _90  and  _91
REMARK   41  A    between atoms: _96  and  _97
REMARK   42  A    between atoms: _99  and  _101
REMARK   43  A    between atoms: _101  and  _102
REMARK   44  A    between atoms: _101  and  _104
REMARK   45  A    between atoms: _104  and  _105
REMARK   46  A    between atoms: _108  and  _110
REMARK   47  A    between atoms: _110  and  _111
REMARK   48  A    between atoms: _110  and  _113
REMARK   49  A    between atoms: _113  and  _114
REMARK   50  A    between atoms: _117  and  _119
REMARK   51  A    between atoms: _119  and  _120
REMARK   52  A    between atoms: _119  and  _122
REMARK   53  A    between atoms: _125  and  _127
REMARK   54  A    between atoms: _127  and  _128
REMARK   55  A    between atoms: _127  and  _130
REMARK   56  A    between atoms: _130  and  _131
REMARK   57  A    between atoms: _131  and  _132
REMARK   58  A    between atoms: _132  and  _133
REMARK   59  A    between atoms: _142  and  _144
REMARK   60  A    between atoms: _144  and  _145
REMARK   61  A    between atoms: _144  and  _147
REMARK   62  A    between atoms: _147  and  _148
REMARK   63  A    between atoms: _153  and  _155
REMARK   64  A    between atoms: _155  and  _156
REMARK   65  A    between atoms: _155  and  _158
REMARK   66  A    between atoms: _158  and  _159
REMARK   67  A    between atoms: _159  and  _160
REMARK   68  A    between atoms: _163  and  _165
REMARK   69  A    between atoms: _165  and  _166
REMARK   70  A    between atoms: _165  and  _168
REMARK   71  A    between atoms: _168  and  _169
REMARK   72  A    between atoms: _169  and  _170
REMARK   73  A    between atoms: _170  and  _171
REMARK   74  A    between atoms: _171  and  _172
REMARK   75  A    between atoms: _176  and  _178
REMARK   76  A    between atoms: _178  and  _179
REMARK   77  A    between atoms: _181  and  _183
REMARK   78  A    between atoms: _183  and  _184
REMARK   79  A    between atoms: _183  and  _186
REMARK   80  A    between atoms: _189  and  _191
REMARK   81  A    between atoms: _191  and  _192
REMARK   82  A    between atoms: _191  and  _194
REMARK   83  A    between atoms: _194  and  _195
REMARK   84  A    between atoms: _197  and  _199
REMARK   85  A    between atoms: _199  and  _200
REMARK   86  A    between atoms: _199  and  _202
REMARK   87  A    between atoms: _202  and  _203
REMARK   88  A    between atoms: _205  and  _207
REMARK   89  A    between atoms: _207  and  _208
REMARK   90  A    between atoms: _207  and  _210
REMARK   91  A    between atoms: _210  and  _211
REMARK   92  A    between atoms: _217  and  _219
REMARK   93  A    between atoms: _219  and  _220
REMARK   94  A    between atoms: _219  and  _222
REMARK   95  A    between atoms: _222  and  _223
REMARK   96  A    between atoms: _226  and  _228
REMARK   97  A    between atoms: _228  and  _229
REMARK   98  A    between atoms: _228  and  _231
REMARK   99  A    between atoms: _231  and  _232
REMARK  100  A    between atoms: _235  and  _237
REMARK  101  A    between atoms: _237  and  _238
REMARK  102  A    between atoms: _237  and  _240
REMARK  103  A    between atoms: _240  and  _241
REMARK  104  A    between atoms: _244  and  _246
REMARK  105  A    between atoms: _246  and  _247
REMARK  106  A    between atoms: _246  and  _249
REMARK  107  A    between atoms: _249  and  _250
REMARK  108  A    between atoms: _250  and  _251
REMARK  109  A    between atoms: _253  and  _255
REMARK  110  A    between atoms: _255  and  _256
REMARK  111  A    between atoms: _255  and  _258
REMARK  112  A    between atoms: _258  and  _259
REMARK  113  A    between atoms: _265  and  _267
REMARK  114  A    between atoms: _267  and  _268
REMARK  115  A    between atoms: _267  and  _270
REMARK  116  A    between atoms: _272  and  _274
REMARK  117  A    between atoms: _274  and  _275
REMARK  118  A    between atoms: _278  and  _280
REMARK  119  A    between atoms: _280  and  _281
REMARK  120  A    between atoms: _283  and  _285
REMARK  121  A    between atoms: _285  and  _286
REMARK  122  A    between atoms: _285  and  _288
REMARK  123  A    between atoms: _288  and  _289
REMARK  124  A    between atoms: _289  and  _290
REMARK  125  A    between atoms: _293  and  _295
REMARK  126  A    between atoms: _295  and  _296
REMARK  127  A    between atoms: _295  and  _298
REMARK  128  A    between atoms: _298  and  _299
REMARK  129  A    between atoms: _302  and  _304
REMARK  130  A    between atoms: _304  and  _305
REMARK  131  A    between atoms: _308  and  _310
REMARK  132  A    between atoms: _310  and  _311
REMARK  133  A    between atoms: _310  and  _313
REMARK  134  A    between atoms: _313  and  _314
REMARK  135  A    between atoms: _314  and  _437
REMARK  136  A    between atoms: _315  and  _317
REMARK  137  A    between atoms: _317  and  _318
REMARK  138  A    between atoms: _317  and  _320
REMARK  139  A    between atoms: _320  and  _321
REMARK  140  A    between atoms: _321  and  _322
REMARK  141  A    between atoms: _327  and  _329
REMARK  142  A    between atoms: _329  and  _330
REMARK  143  A    between atoms: _332  and  _334
REMARK  144  A    between atoms: _334  and  _335
REMARK  145  A    between atoms: _334  and  _337
REMARK  146  A    between atoms: _337  and  _338
REMARK  147  A    between atoms: _341  and  _343
REMARK  148  A    between atoms: _343  and  _344
REMARK  149  A    between atoms: _343  and  _346
REMARK  150  A    between atoms: _346  and  _347
REMARK  151  A    between atoms: _349  and  _351
REMARK  152  A    between atoms: _351  and  _352
REMARK  153  A    between atoms: _354  and  _356
REMARK  154  A    between atoms: _356  and  _357
REMARK  155  A    between atoms: _359  and  _361
REMARK  156  A    between atoms: _361  and  _362
REMARK  157  A    between atoms: _361  and  _364
REMARK  158  A    between atoms: _364  and  _365
REMARK  159  A    between atoms: _370  and  _372
REMARK  160  A    between atoms: _372  and  _373
REMARK  161  A    between atoms: _372  and  _375
REMARK  162  A    between atoms: _375  and  _376
REMARK  163  A    between atoms: _379  and  _381
REMARK  164  A    between atoms: _381  and  _382
REMARK  165  A    between atoms: _381  and  _384
REMARK  166  A    between atoms: _387  and  _389
REMARK  167  A    between atoms: _389  and  _390
REMARK  168  A    between atoms: _389  and  _392
REMARK  169  A    between atoms: _392  and  _393
REMARK  170  A    between atoms: _395  and  _397
REMARK  171  A    between atoms: _397  and  _398
REMARK  172  A    between atoms: _397  and  _400
REMARK  173  A    between atoms: _400  and  _401
REMARK  174  A    between atoms: _411  and  _413
REMARK  175  A    between atoms: _413  and  _414
REMARK  176  A    between atoms: _416  and  _418
REMARK  177  A    between atoms: _418  and  _419
REMARK  178  A    between atoms: _418  and  _421
REMARK  179  A    between atoms: _421  and  _422
REMARK  180  A    between atoms: _422  and  _423
REMARK  181  A    between atoms: _426  and  _428
REMARK  182  A    between atoms: _428  and  _429
REMARK  183  A    between atoms: _431  and  _433
REMARK  184  A    between atoms: _433  and  _434
REMARK  185  A    between atoms: _433  and  _436
REMARK  186  A    between atoms: _436  and  _437
REMARK  187  A    between atoms: _438  and  _440
REMARK  188  A    between atoms: _440  and  _441
REMARK  189  A    between atoms: _444  and  _446
REMARK  190  A    between atoms: _446  and  _447
REMARK  191  A    between atoms: _446  and  _449
REMARK  192  A    between atoms: _449  and  _450
REMARK  193  A    between atoms: _450  and  _451
REMARK  194  A    between atoms: _451  and  _452
REMARK  195  A    between atoms: _461  and  _463
REMARK  196  A    between atoms: _463  and  _464
REMARK  197  A    between atoms: _463  and  _466
REMARK  198  A    between atoms: _466  and  _467
REMARK  199  A    between atoms: _467  and  _468
REMARK  200  A    between atoms: _468  and  _469
REMARK  201  A    between atoms: _469  and  _470
REMARK  202  A    between atoms: _474  and  _476
REMARK  203  A    between atoms: _476  and  _477
REMARK  204  A    between atoms: _476  and  _479
REMARK  205  A    between atoms: _479  and  _480
REMARK  206  A    between atoms: _485  and  _486
REMARK  207  A    between atoms: _488  and  _490
REMARK  208  A    between atoms: _490  and  _491
REMARK  209  A    between atoms: _493  and  _495
REMARK  210  A    between atoms: _495  and  _496
REMARK  211  A    between atoms: _495  and  _498
REMARK  212  A    between atoms: _498  and  _499
REMARK  213  A    between atoms: _502  and  _504
REMARK  214  A    between atoms: _504  and  _505
REMARK  215  A    between atoms: _504  and  _507
REMARK  216  A    between atoms: _507  and  _508
REMARK  217  A    between atoms: _513  and  _514
REMARK  218  A    between atoms: _516  and  _518
REMARK  219  A    between atoms: _518  and  _519
REMARK  220  A    between atoms: _518  and  _521
REMARK  221  A    between atoms: _521  and  _522
REMARK                            x       y       z     vdW  Elec       q    Type
REMARK                         _______ _______ _______ _____ _____    ______ ____
ROOT
ATOM      1  O   HOH     1      13.348  55.180   3.152  0.00  0.00    +0.000 OA
ENDROOT
TORSDOF 0
REMARK  Name = ../refined-set-2016/2xbx/2xbx_pocket.pdb
REMARK  221 active torsions:
REMARK  status: ('A' for Active; 'I' for Inactive)
REMARK    1  A    between atoms: _1  and  _3
REMARK    2  A    between atoms: _3  and  _4
REMARK    3  A    between atoms: _3  and  _6
REMARK    4  A    between atoms: _9  and  _11
REMARK    5  A    between atoms: _11  and  _12
REMARK    6  A    between atoms: _11  and  _14
REMARK    7  A    between atoms: _14  and  _15
REMARK    8  A    between atoms: _20  and  _22
REMARK    9  A    between atoms: _22  and  _23
REMARK   10  A    between atoms: _22  and  _25
REMARK   11  A    between atoms: _25  and  _26
REMARK   12  A    between atoms: _26  and  _27
REMARK   13  A    between atoms: _32  and  _34
REMARK   14  A    between atoms: _34  and  _35
REMARK   15  A    between atoms: _34  and  _37
REMARK   16  A    between atoms: _37  and  _38
REMARK   17  A    between atoms: _44  and  _46
REMARK   18  A    between atoms: _46  and  _47
REMARK   19  A    between atoms: _46  and  _49
REMARK   20  A    between atoms: _49  and  _50
REMARK   21  A    between atoms: _53  and  _55
REMARK   22  A    between atoms: _55  and  _56
REMARK   23  A    between atoms: _55  and  _58
REMARK   24  A    between atoms: _58  and  _59
REMARK   25  A    between atoms: _59  and  _60
REMARK   26  A    between atoms: _60  and  _61
REMARK   27  A    between atoms: _61  and  _62
REMARK   28  A    between atoms: _66  and  _68
REMARK   29  A    between atoms: _68  and  _69
REMARK   30  A    between atoms: _68  and  _71
REMARK   31  A    between atoms: _71  and  _72
REMARK   32  A    between atoms: _72  and  _73
REMARK   33  A    between atoms: _76  and  _78
REMARK   34  A    between atoms: _78  and  _79
REMARK   35  A    between atoms: _78  and  _81
REMARK   36  A    between atoms: _81  and  _82
REMARK   37  A    between atoms: _85  and  _87
REMARK   38  A    between atoms: _87  and  _88
REMARK   39  A    between atoms: _87  and  _90
REMARK   40  A    between atoms: _90  and  _91
REMARK   41  A    between atoms: _96  and  _97
REMARK   42  A    between atoms: _99  and  _101
REMARK   43  A    between atoms: _101  and  _102
REMARK   44  A    between atoms: _101  and  _104
REMARK   45  A    between atoms: _104  and  _105
REMARK   46  A    between atoms: _108  and  _110
REMARK   47  A    between atoms: _110  and  _111
REMARK   48  A    between atoms: _110  and  _113
REMARK   49  A    between atoms: _113  and  _114
REMARK   50  A    between atoms: _117  and  _119
REMARK   51  A    between atoms: _119  and  _120
REMARK   52  A    between atoms: _119  and  _122
REMARK   53  A    between atoms: _125  and  _127
REMARK   54  A    between atoms: _127  and  _128
REMARK   55  A    between atoms: _127  and  _130
REMARK   56  A    between atoms: _130  and  _131
REMARK   57  A    between atoms: _131  and  _132
REMARK   58  A    between atoms: _132  and  _133
REMARK   59  A    between atoms: _142  and  _144
REMARK   60  A    between atoms: _144  and  _145
REMARK   61  A    between atoms: _144  and  _147
REMARK   62  A    between atoms: _147  and  _148
REMARK   63  A    between atoms: _153  and  _155
REMARK   64  A    between atoms: _155  and  _156
REMARK   65  A    between atoms: _155  and  _158
REMARK   66  A    between atoms: _158  and  _159
REMARK   67  A    between atoms: _159  and  _160
REMARK   68  A    between atoms: _163  and  _165
REMARK   69  A    between atoms: _165  and  _166
REMARK   70  A    between atoms: _165  and  _168
REMARK   71  A    between atoms: _168  and  _169
REMARK   72  A    between atoms: _169  and  _170
REMARK   73  A    between atoms: _170  and  _171
REMARK   74  A    between atoms: _171  and  _172
REMARK   75  A    between atoms: _176  and  _178
REMARK   76  A    between atoms: _178  and  _179
REMARK   77  A    between atoms: _181  and  _183
REMARK   78  A    between atoms: _183  and  _184
REMARK   79  A    between atoms: _183  and  _186
REMARK   80  A    between atoms: _189  and  _191
REMARK   81  A    between atoms: _191  and  _192
REMARK   82  A    between atoms: _191  and  _194
REMARK   83  A    between atoms: _194  and  _195
REMARK   84  A    between atoms: _197  and  _199
REMARK   85  A    between atoms: _199  and  _200
REMARK   86  A    between atoms: _199  and  _202
REMARK   87  A    between atoms: _202  and  _203
REMARK   88  A    between atoms: _205  and  _207
REMARK   89  A    between atoms: _207  and  _208
REMARK   90  A    between atoms: _207  and  _210
REMARK   91  A    between atoms: _210  and  _211
REMARK   92  A    between atoms: _217  and  _219
REMARK   93  A    between atoms: _219  and  _220
REMARK   94  A    between atoms: _219  and  _222
REMARK   95  A    between atoms: _222  and  _223
REMARK   96  A    between atoms: _226  and  _228
REMARK   97  A    between atoms: _228  and  _229
REMARK   98  A    between atoms: _228  and  _231
REMARK   99  A    between atoms: _231  and  _232
REMARK  100  A    between atoms: _235  and  _237
REMARK  101  A    between atoms: _237  and  _238
REMARK  102  A    between atoms: _237  and  _240
REMARK  103  A    between atoms: _240  and  _241
REMARK  104  A    between atoms: _244  and  _246
REMARK  105  A    between atoms: _246  and  _247
REMARK  106  A    between atoms: _246  and  _249
REMARK  107  A    between atoms: _249  and  _250
REMARK  108  A    between atoms: _250  and  _251
REMARK  109  A    between atoms: _253  and  _255
REMARK  110  A    between atoms: _255  and  _256
REMARK  111  A    between atoms: _255  and  _258
REMARK  112  A    between atoms: _258  and  _259
REMARK  113  A    between atoms: _265  and  _267
REMARK  114  A    between atoms: _267  and  _268
REMARK  115  A    between atoms: _267  and  _270
REMARK  116  A    between atoms: _272  and  _274
REMARK  117  A    between atoms: _274  and  _275
REMARK  118  A    between atoms: _278  and  _280
REMARK  119  A    between atoms: _280  and  _281
REMARK  120  A    between atoms: _283  and  _285
REMARK  121  A    between atoms: _285  and  _286
REMARK  122  A    between atoms: _285  and  _288
REMARK  123  A    between atoms: _288  and  _289
REMARK  124  A    between atoms: _289  and  _290
REMARK  125  A    between atoms: _293  and  _295
REMARK  126  A    between atoms: _295  and  _296
REMARK  127  A    between atoms: _295  and  _298
REMARK  128  A    between atoms: _298  and  _299
REMARK  129  A    between atoms: _302  and  _304
REMARK  130  A    between atoms: _304  and  _305
REMARK  131  A    between atoms: _308  and  _310
REMARK  132  A    between atoms: _310  and  _311
REMARK  133  A    between atoms: _310  and  _313
REMARK  134  A    between atoms: _313  and  _314
REMARK  135  A    between atoms: _314  and  _437
REMARK  136  A    between atoms: _315  and  _317
REMARK  137  A    between atoms: _317  and  _318
REMARK  138  A    between atoms: _317  and  _320
REMARK  139  A    between atoms: _320  and  _321
REMARK  140  A    between atoms: _321  and  _322
REMARK  141  A    between atoms: _327  and  _329
REMARK  142  A    between atoms: _329  and  _330
REMARK  143  A    between atoms: _332  and  _334
REMARK  144  A    between atoms: _334  and  _335
REMARK  145  A    between atoms: _334  and  _337
REMARK  146  A    between atoms: _337  and  _338
REMARK  147  A    between atoms: _341  and  _343
REMARK  148  A    between atoms: _343  and  _344
REMARK  149  A    between atoms: _343  and  _346
REMARK  150  A    between atoms: _346  and  _347
REMARK  151  A    between atoms: _349  and  _351
REMARK  152  A    between atoms: _351  and  _352
REMARK  153  A    between atoms: _354  and  _356
REMARK  154  A    between atoms: _356  and  _357
REMARK  155  A    between atoms: _359  and  _361
REMARK  156  A    between atoms: _361  and  _362
REMARK  157  A    between atoms: _361  and  _364
REMARK  158  A    between atoms: _364  and  _365
REMARK  159  A    between atoms: _370  and  _372
REMARK  160  A    between atoms: _372  and  _373
REMARK  161  A    between atoms: _372  and  _375
REMARK  162  A    between atoms: _375  and  _376
REMARK  163  A    between atoms: _379  and  _381
REMARK  164  A    between atoms: _381  and  _382
REMARK  165  A    between atoms: _381  and  _384
REMARK  166  A    between atoms: _387  and  _389
REMARK  167  A    between atoms: _389  and  _390
REMARK  168  A    between atoms: _389  and  _392
REMARK  169  A    between atoms: _392  and  _393
REMARK  170  A    between atoms: _395  and  _397
REMARK  171  A    between atoms: _397  and  _398
REMARK  172  A    between atoms: _397  and  _400
REMARK  173  A    between atoms: _400  and  _401
REMARK  174  A    between atoms: _411  and  _413
REMARK  175  A    between atoms: _413  and  _414
REMARK  176  A    between atoms: _416  and  _418
REMARK  177  A    between atoms: _418  and  _419
REMARK  178  A    between atoms: _418  and  _421
REMARK  179  A    between atoms: _421  and  _422
REMARK  180  A    between atoms: _422  and  _423
REMARK  181  A    between atoms: _426  and  _428
REMARK  182  A    between atoms: _428  and  _429
REMARK  183  A    between atoms: _431  and  _433
REMARK  184  A    between atoms: _433  and  _434
REMARK  185  A    between atoms: _433  and  _436
REMARK  186  A    between atoms: _436  and  _437
REMARK  187  A    between atoms: _438  and  _440
REMARK  188  A    between atoms: _440  and  _441
REMARK  189  A    between atoms: _444  and  _446
REMARK  190  A    between atoms: _446  and  _447
REMARK  191  A    between atoms: _446  and  _449
REMARK  192  A    between atoms: _449  and  _450
REMARK  193  A    between atoms: _450  and  _451
REMARK  194  A    between atoms: _451  and  _452
REMARK  195  A    between atoms: _461  and  _463
REMARK  196  A    between atoms: _463  and  _464
REMARK  197  A    between atoms: _463  and  _466
REMARK  198  A    between atoms: _466  and  _467
REMARK  199  A    between atoms: _467  and  _468
REMARK  200  A    between atoms: _468  and  _469
REMARK  201  A    between atoms: _469  and  _470
REMARK  202  A    between atoms: _474  and  _476
REMARK  203  A    between atoms: _476  and  _477
REMARK  204  A    between atoms: _476  and  _479
REMARK  205  A    between atoms: _479  and  _480
REMARK  206  A    between atoms: _485  and  _486
REMARK  207  A    between atoms: _488  and  _490
REMARK  208  A    between atoms: _490  and  _491
REMARK  209  A    between atoms: _493  and  _495
REMARK  210  A    between atoms: _495  and  _496
REMARK  211  A    between atoms: _495  and  _498
REMARK  212  A    between atoms: _498  and  _499
REMARK  213  A    between atoms: _502  and  _504
REMARK  214  A    between atoms: _504  and  _505
REMARK  215  A    between atoms: _504  and  _507
REMARK  216  A    between atoms: _507  and  _508
REMARK  217  A    between atoms: _513  and  _514
REMARK  218  A    between atoms: _516  and  _518
REMARK  219  A    between atoms: _518  and  _519
REMARK  220  A    between atoms: _518  and  _521
REMARK  221  A    between atoms: _521  and  _522
REMARK                            x       y       z     vdW  Elec       q    Type
REMARK                         _______ _______ _______ _____ _____    ______ ____
ROOT
ATOM      1  O   HOH     1       7.423  61.785  -2.994  0.00  0.00    +0.000 OA
ENDROOT
TORSDOF 0
REMARK  Name = ../refined-set-2016/2xbx/2xbx_pocket.pdb
REMARK  221 active torsions:
REMARK  status: ('A' for Active; 'I' for Inactive)
REMARK    1  A    between atoms: _1  and  _3
REMARK    2  A    between atoms: _3  and  _4
REMARK    3  A    between atoms: _3  and  _6
REMARK    4  A    between atoms: _9  and  _11
REMARK    5  A    between atoms: _11  and  _12
REMARK    6  A    between atoms: _11  and  _14
REMARK    7  A    between atoms: _14  and  _15
REMARK    8  A    between atoms: _20  and  _22
REMARK    9  A    between atoms: _22  and  _23
REMARK   10  A    between atoms: _22  and  _25
REMARK   11  A    between atoms: _25  and  _26
REMARK   12  A    between atoms: _26  and  _27
REMARK   13  A    between atoms: _32  and  _34
REMARK   14  A    between atoms: _34  and  _35
REMARK   15  A    between atoms: _34  and  _37
REMARK   16  A    between atoms: _37  and  _38
REMARK   17  A    between atoms: _44  and  _46
REMARK   18  A    between atoms: _46  and  _47
REMARK   19  A    between atoms: _46  and  _49
REMARK   20  A    between atoms: _49  and  _50
REMARK   21  A    between atoms: _53  and  _55
REMARK   22  A    between atoms: _55  and  _56
REMARK   23  A    between atoms: _55  and  _58
REMARK   24  A    between atoms: _58  and  _59
REMARK   25  A    between atoms: _59  and  _60
REMARK   26  A    between atoms: _60  and  _61
REMARK   27  A    between atoms: _61  and  _62
REMARK   28  A    between atoms: _66  and  _68
REMARK   29  A    between atoms: _68  and  _69
REMARK   30  A    between atoms: _68  and  _71
REMARK   31  A    between atoms: _71  and  _72
REMARK   32  A    between atoms: _72  and  _73
REMARK   33  A    between atoms: _76  and  _78
REMARK   34  A    between atoms: _78  and  _79
REMARK   35  A    between atoms: _78  and  _81
REMARK   36  A    between atoms: _81  and  _82
REMARK   37  A    between atoms: _85  and  _87
REMARK   38  A    between atoms: _87  and  _88
REMARK   39  A    between atoms: _87  and  _90
REMARK   40  A    between atoms: _90  and  _91
REMARK   41  A    between atoms: _96  and  _97
REMARK   42  A    between atoms: _99  and  _101
REMARK   43  A    between atoms: _101  and  _102
REMARK   44  A    between atoms: _101  and  _104
REMARK   45  A    between atoms: _104  and  _105
REMARK   46  A    between atoms: _108  and  _110
REMARK   47  A    between atoms: _110  and  _111
REMARK   48  A    between atoms: _110  and  _113
REMARK   49  A    between atoms: _113  and  _114
REMARK   50  A    between atoms: _117  and  _119
REMARK   51  A    between atoms: _119  and  _120
REMARK   52  A    between atoms: _119  and  _122
REMARK   53  A    between atoms: _125  and  _127
REMARK   54  A    between atoms: _127  and  _128
REMARK   55  A    between atoms: _127  and  _130
REMARK   56  A    between atoms: _130  and  _131
REMARK   57  A    between atoms: _131  and  _132
REMARK   58  A    between atoms: _132  and  _133
REMARK   59  A    between atoms: _142  and  _144
REMARK   60  A    between atoms: _144  and  _145
REMARK   61  A    between atoms: _144  and  _147
REMARK   62  A    between atoms: _147  and  _148
REMARK   63  A    between atoms: _153  and  _155
REMARK   64  A    between atoms: _155  and  _156
REMARK   65  A    between atoms: _155  and  _158
REMARK   66  A    between atoms: _158  and  _159
REMARK   67  A    between atoms: _159  and  _160
REMARK   68  A    between atoms: _163  and  _165
REMARK   69  A    between atoms: _165  and  _166
REMARK   70  A    between atoms: _165  and  _168
REMARK   71  A    between atoms: _168  and  _169
REMARK   72  A    between atoms: _169  and  _170
REMARK   73  A    between atoms: _170  and  _171
REMARK   74  A    between atoms: _171  and  _172
REMARK   75  A    between atoms: _176  and  _178
REMARK   76  A    between atoms: _178  and  _179
REMARK   77  A    between atoms: _181  and  _183
REMARK   78  A    between atoms: _183  and  _184
REMARK   79  A    between atoms: _183  and  _186
REMARK   80  A    between atoms: _189  and  _191
REMARK   81  A    between atoms: _191  and  _192
REMARK   82  A    between atoms: _191  and  _194
REMARK   83  A    between atoms: _194  and  _195
REMARK   84  A    between atoms: _197  and  _199
REMARK   85  A    between atoms: _199  and  _200
REMARK   86  A    between atoms: _199  and  _202
REMARK   87  A    between atoms: _202  and  _203
REMARK   88  A    between atoms: _205  and  _207
REMARK   89  A    between atoms: _207  and  _208
REMARK   90  A    between atoms: _207  and  _210
REMARK   91  A    between atoms: _210  and  _211
REMARK   92  A    between atoms: _217  and  _219
REMARK   93  A    between atoms: _219  and  _220
REMARK   94  A    between atoms: _219  and  _222
REMARK   95  A    between atoms: _222  and  _223
REMARK   96  A    between atoms: _226  and  _228
REMARK   97  A    between atoms: _228  and  _229
REMARK   98  A    between atoms: _228  and  _231
REMARK   99  A    between atoms: _231  and  _232
REMARK  100  A    between atoms: _235  and  _237
REMARK  101  A    between atoms: _237  and  _238
REMARK  102  A    between atoms: _237  and  _240
REMARK  103  A    between atoms: _240  and  _241
REMARK  104  A    between atoms: _244  and  _246
REMARK  105  A    between atoms: _246  and  _247
REMARK  106  A    between atoms: _246  and  _249
REMARK  107  A    between atoms: _249  and  _250
REMARK  108  A    between atoms: _250  and  _251
REMARK  109  A    between atoms: _253  and  _255
REMARK  110  A    between atoms: _255  and  _256
REMARK  111  A    between atoms: _255  and  _258
REMARK  112  A    between atoms: _258  and  _259
REMARK  113  A    between atoms: _265  and  _267
REMARK  114  A    between atoms: _267  and  _268
REMARK  115  A    between atoms: _267  and  _270
REMARK  116  A    between atoms: _272  and  _274
REMARK  117  A    between atoms: _274  and  _275
REMARK  118  A    between atoms: _278  and  _280
REMARK  119  A    between atoms: _280  and  _281
REMARK  120  A    between atoms: _283  and  _285
REMARK  121  A    between atoms: _285  and  _286
REMARK  122  A    between atoms: _285  and  _288
REMARK  123  A    between atoms: _288  and  _289
REMARK  124  A    between atoms: _289  and  _290
REMARK  125  A    between atoms: _293  and  _295
REMARK  126  A    between atoms: _295  and  _296
REMARK  127  A    between atoms: _295  and  _298
REMARK  128  A    between atoms: _298  and  _299
REMARK  129  A    between atoms: _302  and  _304
REMARK  130  A    between atoms: _304  and  _305
REMARK  131  A    between atoms: _308  and  _310
REMARK  132  A    between atoms: _310  and  _311
REMARK  133  A    between atoms: _310  and  _313
REMARK  134  A    between atoms: _313  and  _314
REMARK  135  A    between atoms: _314  and  _437
REMARK  136  A    between atoms: _315  and  _317
REMARK  137  A    between atoms: _317  and  _318
REMARK  138  A    between atoms: _317  and  _320
REMARK  139  A    between atoms: _320  and  _321
REMARK  140  A    between atoms: _321  and  _322
REMARK  141  A    between atoms: _327  and  _329
REMARK  142  A    between atoms: _329  and  _330
REMARK  143  A    between atoms: _332  and  _334
REMARK  144  A    between atoms: _334  and  _335
REMARK  145  A    between atoms: _334  and  _337
REMARK  146  A    between atoms: _337  and  _338
REMARK  147  A    between atoms: _341  and  _343
REMARK  148  A    between atoms: _343  and  _344
REMARK  149  A    between atoms: _343  and  _346
REMARK  150  A    between atoms: _346  and  _347
REMARK  151  A    between atoms: _349  and  _351
REMARK  152  A    between atoms: _351  and  _352
REMARK  153  A    between atoms: _354  and  _356
REMARK  154  A    between atoms: _356  and  _357
REMARK  155  A    between atoms: _359  and  _361
REMARK  156  A    between atoms: _361  and  _362
REMARK  157  A    between atoms: _361  and  _364
REMARK  158  A    between atoms: _364  and  _365
REMARK  159  A    between atoms: _370  and  _372
REMARK  160  A    between atoms: _372  and  _373
REMARK  161  A    between atoms: _372  and  _375
REMARK  162  A    between atoms: _375  and  _376
REMARK  163  A    between atoms: _379  and  _381
REMARK  164  A    between atoms: _381  and  _382
REMARK  165  A    between atoms: _381  and  _384
REMARK  166  A    between atoms: _387  and  _389
REMARK  167  A    between atoms: _389  and  _390
REMARK  168  A    between atoms: _389  and  _392
REMARK  169  A    between atoms: _392  and  _393
REMARK  170  A    between atoms: _395  and  _397
REMARK  171  A    between atoms: _397  and  _398
REMARK  172  A    between atoms: _397  and  _400
REMARK  173  A    between atoms: _400  and  _401
REMARK  174  A    between atoms: _411  and  _413
REMARK  175  A    between atoms: _413  and  _414
REMARK  176  A    between atoms: _416  and  _418
REMARK  177  A    between atoms: _418  and  _419
REMARK  178  A    between atoms: _418  and  _421
REMARK  179  A    between atoms: _421  and  _422
REMARK  180  A    between atoms: _422  and  _423
REMARK  181  A    between atoms: _426  and  _428
REMARK  182  A    between atoms: _428  and  _429
REMARK  183  A    between atoms: _431  and  _433
REMARK  184  A    between atoms: _433  and  _434
REMARK  185  A    between atoms: _433  and  _436
REMARK  186  A    between atoms: _436  and  _437
REMARK  187  A    between atoms: _438  and  _440
REMARK  188  A    between atoms: _440  and  _441
REMARK  189  A    between atoms: _444  and  _446
REMARK  190  A    between atoms: _446  and  _447
REMARK  191  A    between atoms: _446  and  _449
REMARK  192  A    between atoms: _449  and  _450
REMARK  193  A    between atoms: _450  and  _451
REMARK  194  A    between atoms: _451  and  _452
REMARK  195  A    between atoms: _461  and  _463
REMARK  196  A    between atoms: _463  and  _464
REMARK  197  A    between atoms: _463  and  _466
REMARK  198  A    between atoms: _466  and  _467
REMARK  199  A    between atoms: _467  and  _468
REMARK  200  A    between atoms: _468  and  _469
REMARK  201  A    between atoms: _469  and  _470
REMARK  202  A    between atoms: _474  and  _476
REMARK  203  A    between atoms: _476  and  _477
REMARK  204  A    between atoms: _476  and  _479
REMARK  205  A    between atoms: _479  and  _480
REMARK  206  A    between atoms: _485  and  _486
REMARK  207  A    between atoms: _488  and  _490
REMARK  208  A    between atoms: _490  and  _491
REMARK  209  A    between atoms: _493  and  _495
REMARK  210  A    between atoms: _495  and  _496
REMARK  211  A    between atoms: _495  and  _498
REMARK  212  A    between atoms: _498  and  _499
REMARK  213  A    between atoms: _502  and  _504
REMARK  214  A    between atoms: _504  and  _505
REMARK  215  A    between atoms: _504  and  _507
REMARK  216  A    between atoms: _507  and  _508
REMARK  217  A    between atoms: _513  and  _514
REMARK  218  A    between atoms: _516  and  _518
REMARK  219  A    between atoms: _518  and  _519
REMARK  220  A    between atoms: _518  and  _521
REMARK  221  A    between atoms: _521  and  _522
REMARK                            x       y       z     vdW  Elec       q    Type
REMARK                         _______ _______ _______ _____ _____    ______ ____
ROOT
ATOM      1  O   HOH     1      13.496  73.519  -2.222  0.00  0.00    +0.000 OA
ENDROOT
TORSDOF 0
REMARK  Name = ../refined-set-2016/2xbx/2xbx_pocket.pdb
REMARK  221 active torsions:
REMARK  status: ('A' for Active; 'I' for Inactive)
REMARK    1  A    between atoms: _1  and  _3
REMARK    2  A    between atoms: _3  and  _4
REMARK    3  A    between atoms: _3  and  _6
REMARK    4  A    between atoms: _9  and  _11
REMARK    5  A    between atoms: _11  and  _12
REMARK    6  A    between atoms: _11  and  _14
REMARK    7  A    between atoms: _14  and  _15
REMARK    8  A    between atoms: _20  and  _22
REMARK    9  A    between atoms: _22  and  _23
REMARK   10  A    between atoms: _22  and  _25
REMARK   11  A    between atoms: _25  and  _26
REMARK   12  A    between atoms: _26  and  _27
REMARK   13  A    between atoms: _32  and  _34
REMARK   14  A    between atoms: _34  and  _35
REMARK   15  A    between atoms: _34  and  _37
REMARK   16  A    between atoms: _37  and  _38
REMARK   17  A    between atoms: _44  and  _46
REMARK   18  A    between atoms: _46  and  _47
REMARK   19  A    between atoms: _46  and  _49
REMARK   20  A    between atoms: _49  and  _50
REMARK   21  A    between atoms: _53  and  _55
REMARK   22  A    between atoms: _55  and  _56
REMARK   23  A    between atoms: _55  and  _58
REMARK   24  A    between atoms: _58  and  _59
REMARK   25  A    between atoms: _59  and  _60
REMARK   26  A    between atoms: _60  and  _61
REMARK   27  A    between atoms: _61  and  _62
REMARK   28  A    between atoms: _66  and  _68
REMARK   29  A    between atoms: _68  and  _69
REMARK   30  A    between atoms: _68  and  _71
REMARK   31  A    between atoms: _71  and  _72
REMARK   32  A    between atoms: _72  and  _73
REMARK   33  A    between atoms: _76  and  _78
REMARK   34  A    between atoms: _78  and  _79
REMARK   35  A    between atoms: _78  and  _81
REMARK   36  A    between atoms: _81  and  _82
REMARK   37  A    between atoms: _85  and  _87
REMARK   38  A    between atoms: _87  and  _88
REMARK   39  A    between atoms: _87  and  _90
REMARK   40  A    between atoms: _90  and  _91
REMARK   41  A    between atoms: _96  and  _97
REMARK   42  A    between atoms: _99  and  _101
REMARK   43  A    between atoms: _101  and  _102
REMARK   44  A    between atoms: _101  and  _104
REMARK   45  A    between atoms: _104  and  _105
REMARK   46  A    between atoms: _108  and  _110
REMARK   47  A    between atoms: _110  and  _111
REMARK   48  A    between atoms: _110  and  _113
REMARK   49  A    between atoms: _113  and  _114
REMARK   50  A    between atoms: _117  and  _119
REMARK   51  A    between atoms: _119  and  _120
REMARK   52  A    between atoms: _119  and  _122
REMARK   53  A    between atoms: _125  and  _127
REMARK   54  A    between atoms: _127  and  _128
REMARK   55  A    between atoms: _127  and  _130
REMARK   56  A    between atoms: _130  and  _131
REMARK   57  A    between atoms: _131  and  _132
REMARK   58  A    between atoms: _132  and  _133
REMARK   59  A    between atoms: _142  and  _144
REMARK   60  A    between atoms: _144  and  _145
REMARK   61  A    between atoms: _144  and  _147
REMARK   62  A    between atoms: _147  and  _148
REMARK   63  A    between atoms: _153  and  _155
REMARK   64  A    between atoms: _155  and  _156
REMARK   65  A    between atoms: _155  and  _158
REMARK   66  A    between atoms: _158  and  _159
REMARK   67  A    between atoms: _159  and  _160
REMARK   68  A    between atoms: _163  and  _165
REMARK   69  A    between atoms: _165  and  _166
REMARK   70  A    between atoms: _165  and  _168
REMARK   71  A    between atoms: _168  and  _169
REMARK   72  A    between atoms: _169  and  _170
REMARK   73  A    between atoms: _170  and  _171
REMARK   74  A    between atoms: _171  and  _172
REMARK   75  A    between atoms: _176  and  _178
REMARK   76  A    between atoms: _178  and  _179
REMARK   77  A    between atoms: _181  and  _183
REMARK   78  A    between atoms: _183  and  _184
REMARK   79  A    between atoms: _183  and  _186
REMARK   80  A    between atoms: _189  and  _191
REMARK   81  A    between atoms: _191  and  _192
REMARK   82  A    between atoms: _191  and  _194
REMARK   83  A    between atoms: _194  and  _195
REMARK   84  A    between atoms: _197  and  _199
REMARK   85  A    between atoms: _199  and  _200
REMARK   86  A    between atoms: _199  and  _202
REMARK   87  A    between atoms: _202  and  _203
REMARK   88  A    between atoms: _205  and  _207
REMARK   89  A    between atoms: _207  and  _208
REMARK   90  A    between atoms: _207  and  _210
REMARK   91  A    between atoms: _210  and  _211
REMARK   92  A    between atoms: _217  and  _219
REMARK   93  A    between atoms: _219  and  _220
REMARK   94  A    between atoms: _219  and  _222
REMARK   95  A    between atoms: _222  and  _223
REMARK   96  A    between atoms: _226  and  _228
REMARK   97  A    between atoms: _228  and  _229
REMARK   98  A    between atoms: _228  and  _231
REMARK   99  A    between atoms: _231  and  _232
REMARK  100  A    between atoms: _235  and  _237
REMARK  101  A    between atoms: _237  and  _238
REMARK  102  A    between atoms: _237  and  _240
REMARK  103  A    between atoms: _240  and  _241
REMARK  104  A    between atoms: _244  and  _246
REMARK  105  A    between atoms: _246  and  _247
REMARK  106  A    between atoms: _246  and  _249
REMARK  107  A    between atoms: _249  and  _250
REMARK  108  A    between atoms: _250  and  _251
REMARK  109  A    between atoms: _253  and  _255
REMARK  110  A    between atoms: _255  and  _256
REMARK  111  A    between atoms: _255  and  _258
REMARK  112  A    between atoms: _258  and  _259
REMARK  113  A    between atoms: _265  and  _267
REMARK  114  A    between atoms: _267  and  _268
REMARK  115  A    between atoms: _267  and  _270
REMARK  116  A    between atoms: _272  and  _274
REMARK  117  A    between atoms: _274  and  _275
REMARK  118  A    between atoms: _278  and  _280
REMARK  119  A    between atoms: _280  and  _281
REMARK  120  A    between atoms: _283  and  _285
REMARK  121  A    between atoms: _285  and  _286
REMARK  122  A    between atoms: _285  and  _288
REMARK  123  A    between atoms: _288  and  _289
REMARK  124  A    between atoms: _289  and  _290
REMARK  125  A    between atoms: _293  and  _295
REMARK  126  A    between atoms: _295  and  _296
REMARK  127  A    between atoms: _295  and  _298
REMARK  128  A    between atoms: _298  and  _299
REMARK  129  A    between atoms: _302  and  _304
REMARK  130  A    between atoms: _304  and  _305
REMARK  131  A    between atoms: _308  and  _310
REMARK  132  A    between atoms: _310  and  _311
REMARK  133  A    between atoms: _310  and  _313
REMARK  134  A    between atoms: _313  and  _314
REMARK  135  A    between atoms: _314  and  _437
REMARK  136  A    between atoms: _315  and  _317
REMARK  137  A    between atoms: _317  and  _318
REMARK  138  A    between atoms: _317  and  _320
REMARK  139  A    between atoms: _320  and  _321
REMARK  140  A    between atoms: _321  and  _322
REMARK  141  A    between atoms: _327  and  _329
REMARK  142  A    between atoms: _329  and  _330
REMARK  143  A    between atoms: _332  and  _334
REMARK  144  A    between atoms: _334  and  _335
REMARK  145  A    between atoms: _334  and  _337
REMARK  146  A    between atoms: _337  and  _338
REMARK  147  A    between atoms: _341  and  _343
REMARK  148  A    between atoms: _343  and  _344
REMARK  149  A    between atoms: _343  and  _346
REMARK  150  A    between atoms: _346  and  _347
REMARK  151  A    between atoms: _349  and  _351
REMARK  152  A    between atoms: _351  and  _352
REMARK  153  A    between atoms: _354  and  _356
REMARK  154  A    between atoms: _356  and  _357
REMARK  155  A    between atoms: _359  and  _361
REMARK  156  A    between atoms: _361  and  _362
REMARK  157  A    between atoms: _361  and  _364
REMARK  158  A    between atoms: _364  and  _365
REMARK  159  A    between atoms: _370  and  _372
REMARK  160  A    between atoms: _372  and  _373
REMARK  161  A    between atoms: _372  and  _375
REMARK  162  A    between atoms: _375  and  _376
REMARK  163  A    between atoms: _379  and  _381
REMARK  164  A    between atoms: _381  and  _382
REMARK  165  A    between atoms: _381  and  _384
REMARK  166  A    between atoms: _387  and  _389
REMARK  167  A    between atoms: _389  and  _390
REMARK  168  A    between atoms: _389  and  _392
REMARK  169  A    between atoms: _392  and  _393
REMARK  170  A    between atoms: _395  and  _397
REMARK  171  A    between atoms: _397  and  _398
REMARK  172  A    between atoms: _397  and  _400
REMARK  173  A    between atoms: _400  and  _401
REMARK  174  A    between atoms: _411  and  _413
REMARK  175  A    between atoms: _413  and  _414
REMARK  176  A    between atoms: _416  and  _418
REMARK  177  A    between atoms: _418  and  _419
REMARK  178  A    between atoms: _418  and  _421
REMARK  179  A    between atoms: _421  and  _422
REMARK  180  A    between atoms: _422  and  _423
REMARK  181  A    between atoms: _426  and  _428
REMARK  182  A    between atoms: _428  and  _429
REMARK  183  A    between atoms: _431  and  _433
REMARK  184  A    between atoms: _433  and  _434
REMARK  185  A    between atoms: _433  and  _436
REMARK  186  A    between atoms: _436  and  _437
REMARK  187  A    between atoms: _438  and  _440
REMARK  188  A    between atoms: _440  and  _441
REMARK  189  A    between atoms: _444  and  _446
REMARK  190  A    between atoms: _446  and  _447
REMARK  191  A    between atoms: _446  and  _449
REMARK  192  A    between atoms: _449  and  _450
REMARK  193  A    between atoms: _450  and  _451
REMARK  194  A    between atoms: _451  and  _452
REMARK  195  A    between atoms: _461  and  _463
REMARK  196  A    between atoms: _463  and  _464
REMARK  197  A    between atoms: _463  and  _466
REMARK  198  A    between atoms: _466  and  _467
REMARK  199  A    between atoms: _467  and  _468
REMARK  200  A    between atoms: _468  and  _469
REMARK  201  A    between atoms: _469  and  _470
REMARK  202  A    between atoms: _474  and  _476
REMARK  203  A    between atoms: _476  and  _477
REMARK  204  A    between atoms: _476  and  _479
REMARK  205  A    between atoms: _479  and  _480
REMARK  206  A    between atoms: _485  and  _486
REMARK  207  A    between atoms: _488  and  _490
REMARK  208  A    between atoms: _490  and  _491
REMARK  209  A    between atoms: _493  and  _495
REMARK  210  A    between atoms: _495  and  _496
REMARK  211  A    between atoms: _495  and  _498
REMARK  212  A    between atoms: _498  and  _499
REMARK  213  A    between atoms: _502  and  _504
REMARK  214  A    between atoms: _504  and  _505
REMARK  215  A    between atoms: _504  and  _507
REMARK  216  A    between atoms: _507  and  _508
REMARK  217  A    between atoms: _513  and  _514
REMARK  218  A    between atoms: _516  and  _518
REMARK  219  A    between atoms: _518  and  _519
REMARK  220  A    between atoms: _518  and  _521
REMARK  221  A    between atoms: _521  and  _522
REMARK                            x       y       z     vdW  Elec       q    Type
REMARK                         _______ _______ _______ _____ _____    ______ ____
ROOT
ATOM      1  O   HOH     1       8.875  72.777  11.213  0.00  0.00    +0.000 OA
ENDROOT
TORSDOF 0
REMARK  Name = ../refined-set-2016/2xbx/2xbx_pocket.pdb
REMARK  221 active torsions:
REMARK  status: ('A' for Active; 'I' for Inactive)
REMARK    1  A    between atoms: _1  and  _3
REMARK    2  A    between atoms: _3  and  _4
REMARK    3  A    between atoms: _3  and  _6
REMARK    4  A    between atoms: _9  and  _11
REMARK    5  A    between atoms: _11  and  _12
REMARK    6  A    between atoms: _11  and  _14
REMARK    7  A    between atoms: _14  and  _15
REMARK    8  A    between atoms: _20  and  _22
REMARK    9  A    between atoms: _22  and  _23
REMARK   10  A    between atoms: _22  and  _25
REMARK   11  A    between atoms: _25  and  _26
REMARK   12  A    between atoms: _26  and  _27
REMARK   13  A    between atoms: _32  and  _34
REMARK   14  A    between atoms: _34  and  _35
REMARK   15  A    between atoms: _34  and  _37
REMARK   16  A    between atoms: _37  and  _38
REMARK   17  A    between atoms: _44  and  _46
REMARK   18  A    between atoms: _46  and  _47
REMARK   19  A    between atoms: _46  and  _49
REMARK   20  A    between atoms: _49  and  _50
REMARK   21  A    between atoms: _53  and  _55
REMARK   22  A    between atoms: _55  and  _56
REMARK   23  A    between atoms: _55  and  _58
REMARK   24  A    between atoms: _58  and  _59
REMARK   25  A    between atoms: _59  and  _60
REMARK   26  A    between atoms: _60  and  _61
REMARK   27  A    between atoms: _61  and  _62
REMARK   28  A    between atoms: _66  and  _68
REMARK   29  A    between atoms: _68  and  _69
REMARK   30  A    between atoms: _68  and  _71
REMARK   31  A    between atoms: _71  and  _72
REMARK   32  A    between atoms: _72  and  _73
REMARK   33  A    between atoms: _76  and  _78
REMARK   34  A    between atoms: _78  and  _79
REMARK   35  A    between atoms: _78  and  _81
REMARK   36  A    between atoms: _81  and  _82
REMARK   37  A    between atoms: _85  and  _87
REMARK   38  A    between atoms: _87  and  _88
REMARK   39  A    between atoms: _87  and  _90
REMARK   40  A    between atoms: _90  and  _91
REMARK   41  A    between atoms: _96  and  _97
REMARK   42  A    between atoms: _99  and  _101
REMARK   43  A    between atoms: _101  and  _102
REMARK   44  A    between atoms: _101  and  _104
REMARK   45  A    between atoms: _104  and  _105
REMARK   46  A    between atoms: _108  and  _110
REMARK   47  A    between atoms: _110  and  _111
REMARK   48  A    between atoms: _110  and  _113
REMARK   49  A    between atoms: _113  and  _114
REMARK   50  A    between atoms: _117  and  _119
REMARK   51  A    between atoms: _119  and  _120
REMARK   52  A    between atoms: _119  and  _122
REMARK   53  A    between atoms: _125  and  _127
REMARK   54  A    between atoms: _127  and  _128
REMARK   55  A    between atoms: _127  and  _130
REMARK   56  A    between atoms: _130  and  _131
REMARK   57  A    between atoms: _131  and  _132
REMARK   58  A    between atoms: _132  and  _133
REMARK   59  A    between atoms: _142  and  _144
REMARK   60  A    between atoms: _144  and  _145
REMARK   61  A    between atoms: _144  and  _147
REMARK   62  A    between atoms: _147  and  _148
REMARK   63  A    between atoms: _153  and  _155
REMARK   64  A    between atoms: _155  and  _156
REMARK   65  A    between atoms: _155  and  _158
REMARK   66  A    between atoms: _158  and  _159
REMARK   67  A    between atoms: _159  and  _160
REMARK   68  A    between atoms: _163  and  _165
REMARK   69  A    between atoms: _165  and  _166
REMARK   70  A    between atoms: _165  and  _168
REMARK   71  A    between atoms: _168  and  _169
REMARK   72  A    between atoms: _169  and  _170
REMARK   73  A    between atoms: _170  and  _171
REMARK   74  A    between atoms: _171  and  _172
REMARK   75  A    between atoms: _176  and  _178
REMARK   76  A    between atoms: _178  and  _179
REMARK   77  A    between atoms: _181  and  _183
REMARK   78  A    between atoms: _183  and  _184
REMARK   79  A    between atoms: _183  and  _186
REMARK   80  A    between atoms: _189  and  _191
REMARK   81  A    between atoms: _191  and  _192
REMARK   82  A    between atoms: _191  and  _194
REMARK   83  A    between atoms: _194  and  _195
REMARK   84  A    between atoms: _197  and  _199
REMARK   85  A    between atoms: _199  and  _200
REMARK   86  A    between atoms: _199  and  _202
REMARK   87  A    between atoms: _202  and  _203
REMARK   88  A    between atoms: _205  and  _207
REMARK   89  A    between atoms: _207  and  _208
REMARK   90  A    between atoms: _207  and  _210
REMARK   91  A    between atoms: _210  and  _211
REMARK   92  A    between atoms: _217  and  _219
REMARK   93  A    between atoms: _219  and  _220
REMARK   94  A    between atoms: _219  and  _222
REMARK   95  A    between atoms: _222  and  _223
REMARK   96  A    between atoms: _226  and  _228
REMARK   97  A    between atoms: _228  and  _229
REMARK   98  A    between atoms: _228  and  _231
REMARK   99  A    between atoms: _231  and  _232
REMARK  100  A    between atoms: _235  and  _237
REMARK  101  A    between atoms: _237  and  _238
REMARK  102  A    between atoms: _237  and  _240
REMARK  103  A    between atoms: _240  and  _241
REMARK  104  A    between atoms: _244  and  _246
REMARK  105  A    between atoms: _246  and  _247
REMARK  106  A    between atoms: _246  and  _249
REMARK  107  A    between atoms: _249  and  _250
REMARK  108  A    between atoms: _250  and  _251
REMARK  109  A    between atoms: _253  and  _255
REMARK  110  A    between atoms: _255  and  _256
REMARK  111  A    between atoms: _255  and  _258
REMARK  112  A    between atoms: _258  and  _259
REMARK  113  A    between atoms: _265  and  _267
REMARK  114  A    between atoms: _267  and  _268
REMARK  115  A    between atoms: _267  and  _270
REMARK  116  A    between atoms: _272  and  _274
REMARK  117  A    between atoms: _274  and  _275
REMARK  118  A    between atoms: _278  and  _280
REMARK  119  A    between atoms: _280  and  _281
REMARK  120  A    between atoms: _283  and  _285
REMARK  121  A    between atoms: _285  and  _286
REMARK  122  A    between atoms: _285  and  _288
REMARK  123  A    between atoms: _288  and  _289
REMARK  124  A    between atoms: _289  and  _290
REMARK  125  A    between atoms: _293  and  _295
REMARK  126  A    between atoms: _295  and  _296
REMARK  127  A    between atoms: _295  and  _298
REMARK  128  A    between atoms: _298  and  _299
REMARK  129  A    between atoms: _302  and  _304
REMARK  130  A    between atoms: _304  and  _305
REMARK  131  A    between atoms: _308  and  _310
REMARK  132  A    between atoms: _310  and  _311
REMARK  133  A    between atoms: _310  and  _313
REMARK  134  A    between atoms: _313  and  _314
REMARK  135  A    between atoms: _314  and  _437
REMARK  136  A    between atoms: _315  and  _317
REMARK  137  A    between atoms: _317  and  _318
REMARK  138  A    between atoms: _317  and  _320
REMARK  139  A    between atoms: _320  and  _321
REMARK  140  A    between atoms: _321  and  _322
REMARK  141  A    between atoms: _327  and  _329
REMARK  142  A    between atoms: _329  and  _330
REMARK  143  A    between atoms: _332  and  _334
REMARK  144  A    between atoms: _334  and  _335
REMARK  145  A    between atoms: _334  and  _337
REMARK  146  A    between atoms: _337  and  _338
REMARK  147  A    between atoms: _341  and  _343
REMARK  148  A    between atoms: _343  and  _344
REMARK  149  A    between atoms: _343  and  _346
REMARK  150  A    between atoms: _346  and  _347
REMARK  151  A    between atoms: _349  and  _351
REMARK  152  A    between atoms: _351  and  _352
REMARK  153  A    between atoms: _354  and  _356
REMARK  154  A    between atoms: _356  and  _357
REMARK  155  A    between atoms: _359  and  _361
REMARK  156  A    between atoms: _361  and  _362
REMARK  157  A    between atoms: _361  and  _364
REMARK  158  A    between atoms: _364  and  _365
REMARK  159  A    between atoms: _370  and  _372
REMARK  160  A    between atoms: _372  and  _373
REMARK  161  A    between atoms: _372  and  _375
REMARK  162  A    between atoms: _375  and  _376
REMARK  163  A    between atoms: _379  and  _381
REMARK  164  A    between atoms: _381  and  _382
REMARK  165  A    between atoms: _381  and  _384
REMARK  166  A    between atoms: _387  and  _389
REMARK  167  A    between atoms: _389  and  _390
REMARK  168  A    between atoms: _389  and  _392
REMARK  169  A    between atoms: _392  and  _393
REMARK  170  A    between atoms: _395  and  _397
REMARK  171  A    between atoms: _397  and  _398
REMARK  172  A    between atoms: _397  and  _400
REMARK  173  A    between atoms: _400  and  _401
REMARK  174  A    between atoms: _411  and  _413
REMARK  175  A    between atoms: _413  and  _414
REMARK  176  A    between atoms: _416  and  _418
REMARK  177  A    between atoms: _418  and  _419
REMARK  178  A    between atoms: _418  and  _421
REMARK  179  A    between atoms: _421  and  _422
REMARK  180  A    between atoms: _422  and  _423
REMARK  181  A    between atoms: _426  and  _428
REMARK  182  A    between atoms: _428  and  _429
REMARK  183  A    between atoms: _431  and  _433
REMARK  184  A    between atoms: _433  and  _434
REMARK  185  A    between atoms: _433  and  _436
REMARK  186  A    between atoms: _436  and  _437
REMARK  187  A    between atoms: _438  and  _440
REMARK  188  A    between atoms: _440  and  _441
REMARK  189  A    between atoms: _444  and  _446
REMARK  190  A    between atoms: _446  and  _447
REMARK  191  A    between atoms: _446  and  _449
REMARK  192  A    between atoms: _449  and  _450
REMARK  193  A    between atoms: _450  and  _451
REMARK  194  A    between atoms: _451  and  _452
REMARK  195  A    between atoms: _461  and  _463
REMARK  196  A    between atoms: _463  and  _464
REMARK  197  A    between atoms: _463  and  _466
REMARK  198  A    between atoms: _466  and  _467
REMARK  199  A    between atoms: _467  and  _468
REMARK  200  A    between atoms: _468  and  _469
REMARK  201  A    between atoms: _469  and  _470
REMARK  202  A    between atoms: _474  and  _476
REMARK  203  A    between atoms: _476  and  _477
REMARK  204  A    between atoms: _476  and  _479
REMARK  205  A    between atoms: _479  and  _480
REMARK  206  A    between atoms: _485  and  _486
REMARK  207  A    between atoms: _488  and  _490
REMARK  208  A    between atoms: _490  and  _491
REMARK  209  A    between atoms: _493  and  _495
REMARK  210  A    between atoms: _495  and  _496
REMARK  211  A    between atoms: _495  and  _498
REMARK  212  A    between atoms: _498  and  _499
REMARK  213  A    between atoms: _502  and  _504
REMARK  214  A    between atoms: _504  and  _505
REMARK  215  A    between atoms: _504  and  _507
REMARK  216  A    between atoms: _507  and  _508
REMARK  217  A    between atoms: _513  and  _514
REMARK  218  A    between atoms: _516  and  _518
REMARK  219  A    between atoms: _518  and  _519
REMARK  220  A    between atoms: _518  and  _521
REMARK  221  A    between atoms: _521  and  _522
REMARK                            x       y       z     vdW  Elec       q    Type
REMARK                         _______ _______ _______ _____ _____    ______ ____
ROOT
ATOM      1  O   HOH     1       5.237  72.790   4.753  0.00  0.00    +0.000 OA
ENDROOT
TORSDOF 0
REMARK  Name = ../refined-set-2016/2xbx/2xbx_pocket.pdb
REMARK  221 active torsions:
REMARK  status: ('A' for Active; 'I' for Inactive)
REMARK    1  A    between atoms: _1  and  _3
REMARK    2  A    between atoms: _3  and  _4
REMARK    3  A    between atoms: _3  and  _6
REMARK    4  A    between atoms: _9  and  _11
REMARK    5  A    between atoms: _11  and  _12
REMARK    6  A    between atoms: _11  and  _14
REMARK    7  A    between atoms: _14  and  _15
REMARK    8  A    between atoms: _20  and  _22
REMARK    9  A    between atoms: _22  and  _23
REMARK   10  A    between atoms: _22  and  _25
REMARK   11  A    between atoms: _25  and  _26
REMARK   12  A    between atoms: _26  and  _27
REMARK   13  A    between atoms: _32  and  _34
REMARK   14  A    between atoms: _34  and  _35
REMARK   15  A    between atoms: _34  and  _37
REMARK   16  A    between atoms: _37  and  _38
REMARK   17  A    between atoms: _44  and  _46
REMARK   18  A    between atoms: _46  and  _47
REMARK   19  A    between atoms: _46  and  _49
REMARK   20  A    between atoms: _49  and  _50
REMARK   21  A    between atoms: _53  and  _55
REMARK   22  A    between atoms: _55  and  _56
REMARK   23  A    between atoms: _55  and  _58
REMARK   24  A    between atoms: _58  and  _59
REMARK   25  A    between atoms: _59  and  _60
REMARK   26  A    between atoms: _60  and  _61
REMARK   27  A    between atoms: _61  and  _62
REMARK   28  A    between atoms: _66  and  _68
REMARK   29  A    between atoms: _68  and  _69
REMARK   30  A    between atoms: _68  and  _71
REMARK   31  A    between atoms: _71  and  _72
REMARK   32  A    between atoms: _72  and  _73
REMARK   33  A    between atoms: _76  and  _78
REMARK   34  A    between atoms: _78  and  _79
REMARK   35  A    between atoms: _78  and  _81
REMARK   36  A    between atoms: _81  and  _82
REMARK   37  A    between atoms: _85  and  _87
REMARK   38  A    between atoms: _87  and  _88
REMARK   39  A    between atoms: _87  and  _90
REMARK   40  A    between atoms: _90  and  _91
REMARK   41  A    between atoms: _96  and  _97
REMARK   42  A    between atoms: _99  and  _101
REMARK   43  A    between atoms: _101  and  _102
REMARK   44  A    between atoms: _101  and  _104
REMARK   45  A    between atoms: _104  and  _105
REMARK   46  A    between atoms: _108  and  _110
REMARK   47  A    between atoms: _110  and  _111
REMARK   48  A    between atoms: _110  and  _113
REMARK   49  A    between atoms: _113  and  _114
REMARK   50  A    between atoms: _117  and  _119
REMARK   51  A    between atoms: _119  and  _120
REMARK   52  A    between atoms: _119  and  _122
REMARK   53  A    between atoms: _125  and  _127
REMARK   54  A    between atoms: _127  and  _128
REMARK   55  A    between atoms: _127  and  _130
REMARK   56  A    between atoms: _130  and  _131
REMARK   57  A    between atoms: _131  and  _132
REMARK   58  A    between atoms: _132  and  _133
REMARK   59  A    between atoms: _142  and  _144
REMARK   60  A    between atoms: _144  and  _145
REMARK   61  A    between atoms: _144  and  _147
REMARK   62  A    between atoms: _147  and  _148
REMARK   63  A    between atoms: _153  and  _155
REMARK   64  A    between atoms: _155  and  _156
REMARK   65  A    between atoms: _155  and  _158
REMARK   66  A    between atoms: _158  and  _159
REMARK   67  A    between atoms: _159  and  _160
REMARK   68  A    between atoms: _163  and  _165
REMARK   69  A    between atoms: _165  and  _166
REMARK   70  A    between atoms: _165  and  _168
REMARK   71  A    between atoms: _168  and  _169
REMARK   72  A    between atoms: _169  and  _170
REMARK   73  A    between atoms: _170  and  _171
REMARK   74  A    between atoms: _171  and  _172
REMARK   75  A    between atoms: _176  and  _178
REMARK   76  A    between atoms: _178  and  _179
REMARK   77  A    between atoms: _181  and  _183
REMARK   78  A    between atoms: _183  and  _184
REMARK   79  A    between atoms: _183  and  _186
REMARK   80  A    between atoms: _189  and  _191
REMARK   81  A    between atoms: _191  and  _192
REMARK   82  A    between atoms: _191  and  _194
REMARK   83  A    between atoms: _194  and  _195
REMARK   84  A    between atoms: _197  and  _199
REMARK   85  A    between atoms: _199  and  _200
REMARK   86  A    between atoms: _199  and  _202
REMARK   87  A    between atoms: _202  and  _203
REMARK   88  A    between atoms: _205  and  _207
REMARK   89  A    between atoms: _207  and  _208
REMARK   90  A    between atoms: _207  and  _210
REMARK   91  A    between atoms: _210  and  _211
REMARK   92  A    between atoms: _217  and  _219
REMARK   93  A    between atoms: _219  and  _220
REMARK   94  A    between atoms: _219  and  _222
REMARK   95  A    between atoms: _222  and  _223
REMARK   96  A    between atoms: _226  and  _228
REMARK   97  A    between atoms: _228  and  _229
REMARK   98  A    between atoms: _228  and  _231
REMARK   99  A    between atoms: _231  and  _232
REMARK  100  A    between atoms: _235  and  _237
REMARK  101  A    between atoms: _237  and  _238
REMARK  102  A    between atoms: _237  and  _240
REMARK  103  A    between atoms: _240  and  _241
REMARK  104  A    between atoms: _244  and  _246
REMARK  105  A    between atoms: _246  and  _247
REMARK  106  A    between atoms: _246  and  _249
REMARK  107  A    between atoms: _249  and  _250
REMARK  108  A    between atoms: _250  and  _251
REMARK  109  A    between atoms: _253  and  _255
REMARK  110  A    between atoms: _255  and  _256
REMARK  111  A    between atoms: _255  and  _258
REMARK  112  A    between atoms: _258  and  _259
REMARK  113  A    between atoms: _265  and  _267
REMARK  114  A    between atoms: _267  and  _268
REMARK  115  A    between atoms: _267  and  _270
REMARK  116  A    between atoms: _272  and  _274
REMARK  117  A    between atoms: _274  and  _275
REMARK  118  A    between atoms: _278  and  _280
REMARK  119  A    between atoms: _280  and  _281
REMARK  120  A    between atoms: _283  and  _285
REMARK  121  A    between atoms: _285  and  _286
REMARK  122  A    between atoms: _285  and  _288
REMARK  123  A    between atoms: _288  and  _289
REMARK  124  A    between atoms: _289  and  _290
REMARK  125  A    between atoms: _293  and  _295
REMARK  126  A    between atoms: _295  and  _296
REMARK  127  A    between atoms: _295  and  _298
REMARK  128  A    between atoms: _298  and  _299
REMARK  129  A    between atoms: _302  and  _304
REMARK  130  A    between atoms: _304  and  _305
REMARK  131  A    between atoms: _308  and  _310
REMARK  132  A    between atoms: _310  and  _311
REMARK  133  A    between atoms: _310  and  _313
REMARK  134  A    between atoms: _313  and  _314
REMARK  135  A    between atoms: _314  and  _437
REMARK  136  A    between atoms: _315  and  _317
REMARK  137  A    between atoms: _317  and  _318
REMARK  138  A    between atoms: _317  and  _320
REMARK  139  A    between atoms: _320  and  _321
REMARK  140  A    between atoms: _321  and  _322
REMARK  141  A    between atoms: _327  and  _329
REMARK  142  A    between atoms: _329  and  _330
REMARK  143  A    between atoms: _332  and  _334
REMARK  144  A    between atoms: _334  and  _335
REMARK  145  A    between atoms: _334  and  _337
REMARK  146  A    between atoms: _337  and  _338
REMARK  147  A    between atoms: _341  and  _343
REMARK  148  A    between atoms: _343  and  _344
REMARK  149  A    between atoms: _343  and  _346
REMARK  150  A    between atoms: _346  and  _347
REMARK  151  A    between atoms: _349  and  _351
REMARK  152  A    between atoms: _351  and  _352
REMARK  153  A    between atoms: _354  and  _356
REMARK  154  A    between atoms: _356  and  _357
REMARK  155  A    between atoms: _359  and  _361
REMARK  156  A    between atoms: _361  and  _362
REMARK  157  A    between atoms: _361  and  _364
REMARK  158  A    between atoms: _364  and  _365
REMARK  159  A    between atoms: _370  and  _372
REMARK  160  A    between atoms: _372  and  _373
REMARK  161  A    between atoms: _372  and  _375
REMARK  162  A    between atoms: _375  and  _376
REMARK  163  A    between atoms: _379  and  _381
REMARK  164  A    between atoms: _381  and  _382
REMARK  165  A    between atoms: _381  and  _384
REMARK  166  A    between atoms: _387  and  _389
REMARK  167  A    between atoms: _389  and  _390
REMARK  168  A    between atoms: _389  and  _392
REMARK  169  A    between atoms: _392  and  _393
REMARK  170  A    between atoms: _395  and  _397
REMARK  171  A    between atoms: _397  and  _398
REMARK  172  A    between atoms: _397  and  _400
REMARK  173  A    between atoms: _400  and  _401
REMARK  174  A    between atoms: _411  and  _413
REMARK  175  A    between atoms: _413  and  _414
REMARK  176  A    between atoms: _416  and  _418
REMARK  177  A    between atoms: _418  and  _419
REMARK  178  A    between atoms: _418  and  _421
REMARK  179  A    between atoms: _421  and  _422
REMARK  180  A    between atoms: _422  and  _423
REMARK  181  A    between atoms: _426  and  _428
REMARK  182  A    between atoms: _428  and  _429
REMARK  183  A    between atoms: _431  and  _433
REMARK  184  A    between atoms: _433  and  _434
REMARK  185  A    between atoms: _433  and  _436
REMARK  186  A    between atoms: _436  and  _437
REMARK  187  A    between atoms: _438  and  _440
REMARK  188  A    between atoms: _440  and  _441
REMARK  189  A    between atoms: _444  and  _446
REMARK  190  A    between atoms: _446  and  _447
REMARK  191  A    between atoms: _446  and  _449
REMARK  192  A    between atoms: _449  and  _450
REMARK  193  A    between atoms: _450  and  _451
REMARK  194  A    between atoms: _451  and  _452
REMARK  195  A    between atoms: _461  and  _463
REMARK  196  A    between atoms: _463  and  _464
REMARK  197  A    between atoms: _463  and  _466
REMARK  198  A    between atoms: _466  and  _467
REMARK  199  A    between atoms: _467  and  _468
REMARK  200  A    between atoms: _468  and  _469
REMARK  201  A    between atoms: _469  and  _470
REMARK  202  A    between atoms: _474  and  _476
REMARK  203  A    between atoms: _476  and  _477
REMARK  204  A    between atoms: _476  and  _479
REMARK  205  A    between atoms: _479  and  _480
REMARK  206  A    between atoms: _485  and  _486
REMARK  207  A    between atoms: _488  and  _490
REMARK  208  A    between atoms: _490  and  _491
REMARK  209  A    between atoms: _493  and  _495
REMARK  210  A    between atoms: _495  and  _496
REMARK  211  A    between atoms: _495  and  _498
REMARK  212  A    between atoms: _498  and  _499
REMARK  213  A    between atoms: _502  and  _504
REMARK  214  A    between atoms: _504  and  _505
REMARK  215  A    between atoms: _504  and  _507
REMARK  216  A    between atoms: _507  and  _508
REMARK  217  A    between atoms: _513  and  _514
REMARK  218  A    between atoms: _516  and  _518
REMARK  219  A    between atoms: _518  and  _519
REMARK  220  A    between atoms: _518  and  _521
REMARK  221  A    between atoms: _521  and  _522
REMARK                            x       y       z     vdW  Elec       q    Type
REMARK                         _______ _______ _______ _____ _____    ______ ____
ROOT
ATOM      1  O   HOH     1      12.494  73.590   9.989  0.00  0.00    +0.000 OA
ENDROOT
TORSDOF 0
REMARK  Name = ../refined-set-2016/2xbx/2xbx_pocket.pdb
REMARK  221 active torsions:
REMARK  status: ('A' for Active; 'I' for Inactive)
REMARK    1  A    between atoms: _1  and  _3
REMARK    2  A    between atoms: _3  and  _4
REMARK    3  A    between atoms: _3  and  _6
REMARK    4  A    between atoms: _9  and  _11
REMARK    5  A    between atoms: _11  and  _12
REMARK    6  A    between atoms: _11  and  _14
REMARK    7  A    between atoms: _14  and  _15
REMARK    8  A    between atoms: _20  and  _22
REMARK    9  A    between atoms: _22  and  _23
REMARK   10  A    between atoms: _22  and  _25
REMARK   11  A    between atoms: _25  and  _26
REMARK   12  A    between atoms: _26  and  _27
REMARK   13  A    between atoms: _32  and  _34
REMARK   14  A    between atoms: _34  and  _35
REMARK   15  A    between atoms: _34  and  _37
REMARK   16  A    between atoms: _37  and  _38
REMARK   17  A    between atoms: _44  and  _46
REMARK   18  A    between atoms: _46  and  _47
REMARK   19  A    between atoms: _46  and  _49
REMARK   20  A    between atoms: _49  and  _50
REMARK   21  A    between atoms: _53  and  _55
REMARK   22  A    between atoms: _55  and  _56
REMARK   23  A    between atoms: _55  and  _58
REMARK   24  A    between atoms: _58  and  _59
REMARK   25  A    between atoms: _59  and  _60
REMARK   26  A    between atoms: _60  and  _61
REMARK   27  A    between atoms: _61  and  _62
REMARK   28  A    between atoms: _66  and  _68
REMARK   29  A    between atoms: _68  and  _69
REMARK   30  A    between atoms: _68  and  _71
REMARK   31  A    between atoms: _71  and  _72
REMARK   32  A    between atoms: _72  and  _73
REMARK   33  A    between atoms: _76  and  _78
REMARK   34  A    between atoms: _78  and  _79
REMARK   35  A    between atoms: _78  and  _81
REMARK   36  A    between atoms: _81  and  _82
REMARK   37  A    between atoms: _85  and  _87
REMARK   38  A    between atoms: _87  and  _88
REMARK   39  A    between atoms: _87  and  _90
REMARK   40  A    between atoms: _90  and  _91
REMARK   41  A    between atoms: _96  and  _97
REMARK   42  A    between atoms: _99  and  _101
REMARK   43  A    between atoms: _101  and  _102
REMARK   44  A    between atoms: _101  and  _104
REMARK   45  A    between atoms: _104  and  _105
REMARK   46  A    between atoms: _108  and  _110
REMARK   47  A    between atoms: _110  and  _111
REMARK   48  A    between atoms: _110  and  _113
REMARK   49  A    between atoms: _113  and  _114
REMARK   50  A    between atoms: _117  and  _119
REMARK   51  A    between atoms: _119  and  _120
REMARK   52  A    between atoms: _119  and  _122
REMARK   53  A    between atoms: _125  and  _127
REMARK   54  A    between atoms: _127  and  _128
REMARK   55  A    between atoms: _127  and  _130
REMARK   56  A    between atoms: _130  and  _131
REMARK   57  A    between atoms: _131  and  _132
REMARK   58  A    between atoms: _132  and  _133
REMARK   59  A    between atoms: _142  and  _144
REMARK   60  A    between atoms: _144  and  _145
REMARK   61  A    between atoms: _144  and  _147
REMARK   62  A    between atoms: _147  and  _148
REMARK   63  A    between atoms: _153  and  _155
REMARK   64  A    between atoms: _155  and  _156
REMARK   65  A    between atoms: _155  and  _158
REMARK   66  A    between atoms: _158  and  _159
REMARK   67  A    between atoms: _159  and  _160
REMARK   68  A    between atoms: _163  and  _165
REMARK   69  A    between atoms: _165  and  _166
REMARK   70  A    between atoms: _165  and  _168
REMARK   71  A    between atoms: _168  and  _169
REMARK   72  A    between atoms: _169  and  _170
REMARK   73  A    between atoms: _170  and  _171
REMARK   74  A    between atoms: _171  and  _172
REMARK   75  A    between atoms: _176  and  _178
REMARK   76  A    between atoms: _178  and  _179
REMARK   77  A    between atoms: _181  and  _183
REMARK   78  A    between atoms: _183  and  _184
REMARK   79  A    between atoms: _183  and  _186
REMARK   80  A    between atoms: _189  and  _191
REMARK   81  A    between atoms: _191  and  _192
REMARK   82  A    between atoms: _191  and  _194
REMARK   83  A    between atoms: _194  and  _195
REMARK   84  A    between atoms: _197  and  _199
REMARK   85  A    between atoms: _199  and  _200
REMARK   86  A    between atoms: _199  and  _202
REMARK   87  A    between atoms: _202  and  _203
REMARK   88  A    between atoms: _205  and  _207
REMARK   89  A    between atoms: _207  and  _208
REMARK   90  A    between atoms: _207  and  _210
REMARK   91  A    between atoms: _210  and  _211
REMARK   92  A    between atoms: _217  and  _219
REMARK   93  A    between atoms: _219  and  _220
REMARK   94  A    between atoms: _219  and  _222
REMARK   95  A    between atoms: _222  and  _223
REMARK   96  A    between atoms: _226  and  _228
REMARK   97  A    between atoms: _228  and  _229
REMARK   98  A    between atoms: _228  and  _231
REMARK   99  A    between atoms: _231  and  _232
REMARK  100  A    between atoms: _235  and  _237
REMARK  101  A    between atoms: _237  and  _238
REMARK  102  A    between atoms: _237  and  _240
REMARK  103  A    between atoms: _240  and  _241
REMARK  104  A    between atoms: _244  and  _246
REMARK  105  A    between atoms: _246  and  _247
REMARK  106  A    between atoms: _246  and  _249
REMARK  107  A    between atoms: _249  and  _250
REMARK  108  A    between atoms: _250  and  _251
REMARK  109  A    between atoms: _253  and  _255
REMARK  110  A    between atoms: _255  and  _256
REMARK  111  A    between atoms: _255  and  _258
REMARK  112  A    between atoms: _258  and  _259
REMARK  113  A    between atoms: _265  and  _267
REMARK  114  A    between atoms: _267  and  _268
REMARK  115  A    between atoms: _267  and  _270
REMARK  116  A    between atoms: _272  and  _274
REMARK  117  A    between atoms: _274  and  _275
REMARK  118  A    between atoms: _278  and  _280
REMARK  119  A    between atoms: _280  and  _281
REMARK  120  A    between atoms: _283  and  _285
REMARK  121  A    between atoms: _285  and  _286
REMARK  122  A    between atoms: _285  and  _288
REMARK  123  A    between atoms: _288  and  _289
REMARK  124  A    between atoms: _289  and  _290
REMARK  125  A    between atoms: _293  and  _295
REMARK  126  A    between atoms: _295  and  _296
REMARK  127  A    between atoms: _295  and  _298
REMARK  128  A    between atoms: _298  and  _299
REMARK  129  A    between atoms: _302  and  _304
REMARK  130  A    between atoms: _304  and  _305
REMARK  131  A    between atoms: _308  and  _310
REMARK  132  A    between atoms: _310  and  _311
REMARK  133  A    between atoms: _310  and  _313
REMARK  134  A    between atoms: _313  and  _314
REMARK  135  A    between atoms: _314  and  _437
REMARK  136  A    between atoms: _315  and  _317
REMARK  137  A    between atoms: _317  and  _318
REMARK  138  A    between atoms: _317  and  _320
REMARK  139  A    between atoms: _320  and  _321
REMARK  140  A    between atoms: _321  and  _322
REMARK  141  A    between atoms: _327  and  _329
REMARK  142  A    between atoms: _329  and  _330
REMARK  143  A    between atoms: _332  and  _334
REMARK  144  A    between atoms: _334  and  _335
REMARK  145  A    between atoms: _334  and  _337
REMARK  146  A    between atoms: _337  and  _338
REMARK  147  A    between atoms: _341  and  _343
REMARK  148  A    between atoms: _343  and  _344
REMARK  149  A    between atoms: _343  and  _346
REMARK  150  A    between atoms: _346  and  _347
REMARK  151  A    between atoms: _349  and  _351
REMARK  152  A    between atoms: _351  and  _352
REMARK  153  A    between atoms: _354  and  _356
REMARK  154  A    between atoms: _356  and  _357
REMARK  155  A    between atoms: _359  and  _361
REMARK  156  A    between atoms: _361  and  _362
REMARK  157  A    between atoms: _361  and  _364
REMARK  158  A    between atoms: _364  and  _365
REMARK  159  A    between atoms: _370  and  _372
REMARK  160  A    between atoms: _372  and  _373
REMARK  161  A    between atoms: _372  and  _375
REMARK  162  A    between atoms: _375  and  _376
REMARK  163  A    between atoms: _379  and  _381
REMARK  164  A    between atoms: _381  and  _382
REMARK  165  A    between atoms: _381  and  _384
REMARK  166  A    between atoms: _387  and  _389
REMARK  167  A    between atoms: _389  and  _390
REMARK  168  A    between atoms: _389  and  _392
REMARK  169  A    between atoms: _392  and  _393
REMARK  170  A    between atoms: _395  and  _397
REMARK  171  A    between atoms: _397  and  _398
REMARK  172  A    between atoms: _397  and  _400
REMARK  173  A    between atoms: _400  and  _401
REMARK  174  A    between atoms: _411  and  _413
REMARK  175  A    between atoms: _413  and  _414
REMARK  176  A    between atoms: _416  and  _418
REMARK  177  A    between atoms: _418  and  _419
REMARK  178  A    between atoms: _418  and  _421
REMARK  179  A    between atoms: _421  and  _422
REMARK  180  A    between atoms: _422  and  _423
REMARK  181  A    between atoms: _426  and  _428
REMARK  182  A    between atoms: _428  and  _429
REMARK  183  A    between atoms: _431  and  _433
REMARK  184  A    between atoms: _433  and  _434
REMARK  185  A    between atoms: _433  and  _436
REMARK  186  A    between atoms: _436  and  _437
REMARK  187  A    between atoms: _438  and  _440
REMARK  188  A    between atoms: _440  and  _441
REMARK  189  A    between atoms: _444  and  _446
REMARK  190  A    between atoms: _446  and  _447
REMARK  191  A    between atoms: _446  and  _449
REMARK  192  A    between atoms: _449  and  _450
REMARK  193  A    between atoms: _450  and  _451
REMARK  194  A    between atoms: _451  and  _452
REMARK  195  A    between atoms: _461  and  _463
REMARK  196  A    between atoms: _463  and  _464
REMARK  197  A    between atoms: _463  and  _466
REMARK  198  A    between atoms: _466  and  _467
REMARK  199  A    between atoms: _467  and  _468
REMARK  200  A    between atoms: _468  and  _469
REMARK  201  A    between atoms: _469  and  _470
REMARK  202  A    between atoms: _474  and  _476
REMARK  203  A    between atoms: _476  and  _477
REMARK  204  A    between atoms: _476  and  _479
REMARK  205  A    between atoms: _479  and  _480
REMARK  206  A    between atoms: _485  and  _486
REMARK  207  A    between atoms: _488  and  _490
REMARK  208  A    between atoms: _490  and  _491
REMARK  209  A    between atoms: _493  and  _495
REMARK  210  A    between atoms: _495  and  _496
REMARK  211  A    between atoms: _495  and  _498
REMARK  212  A    between atoms: _498  and  _499
REMARK  213  A    between atoms: _502  and  _504
REMARK  214  A    between atoms: _504  and  _505
REMARK  215  A    between atoms: _504  and  _507
REMARK  216  A    between atoms: _507  and  _508
REMARK  217  A    between atoms: _513  and  _514
REMARK  218  A    between atoms: _516  and  _518
REMARK  219  A    between atoms: _518  and  _519
REMARK  220  A    between atoms: _518  and  _521
REMARK  221  A    between atoms: _521  and  _522
REMARK                            x       y       z     vdW  Elec       q    Type
REMARK                         _______ _______ _______ _____ _____    ______ ____
ROOT
ATOM      1  O   HOH     1      15.068  70.845  -3.010  0.00  0.00    +0.000 OA
ENDROOT
TORSDOF 0
REMARK  Name = ../refined-set-2016/2xbx/2xbx_pocket.pdb
REMARK  221 active torsions:
REMARK  status: ('A' for Active; 'I' for Inactive)
REMARK    1  A    between atoms: _1  and  _3
REMARK    2  A    between atoms: _3  and  _4
REMARK    3  A    between atoms: _3  and  _6
REMARK    4  A    between atoms: _9  and  _11
REMARK    5  A    between atoms: _11  and  _12
REMARK    6  A    between atoms: _11  and  _14
REMARK    7  A    between atoms: _14  and  _15
REMARK    8  A    between atoms: _20  and  _22
REMARK    9  A    between atoms: _22  and  _23
REMARK   10  A    between atoms: _22  and  _25
REMARK   11  A    between atoms: _25  and  _26
REMARK   12  A    between atoms: _26  and  _27
REMARK   13  A    between atoms: _32  and  _34
REMARK   14  A    between atoms: _34  and  _35
REMARK   15  A    between atoms: _34  and  _37
REMARK   16  A    between atoms: _37  and  _38
REMARK   17  A    between atoms: _44  and  _46
REMARK   18  A    between atoms: _46  and  _47
REMARK   19  A    between atoms: _46  and  _49
REMARK   20  A    between atoms: _49  and  _50
REMARK   21  A    between atoms: _53  and  _55
REMARK   22  A    between atoms: _55  and  _56
REMARK   23  A    between atoms: _55  and  _58
REMARK   24  A    between atoms: _58  and  _59
REMARK   25  A    between atoms: _59  and  _60
REMARK   26  A    between atoms: _60  and  _61
REMARK   27  A    between atoms: _61  and  _62
REMARK   28  A    between atoms: _66  and  _68
REMARK   29  A    between atoms: _68  and  _69
REMARK   30  A    between atoms: _68  and  _71
REMARK   31  A    between atoms: _71  and  _72
REMARK   32  A    between atoms: _72  and  _73
REMARK   33  A    between atoms: _76  and  _78
REMARK   34  A    between atoms: _78  and  _79
REMARK   35  A    between atoms: _78  and  _81
REMARK   36  A    between atoms: _81  and  _82
REMARK   37  A    between atoms: _85  and  _87
REMARK   38  A    between atoms: _87  and  _88
REMARK   39  A    between atoms: _87  and  _90
REMARK   40  A    between atoms: _90  and  _91
REMARK   41  A    between atoms: _96  and  _97
REMARK   42  A    between atoms: _99  and  _101
REMARK   43  A    between atoms: _101  and  _102
REMARK   44  A    between atoms: _101  and  _104
REMARK   45  A    between atoms: _104  and  _105
REMARK   46  A    between atoms: _108  and  _110
REMARK   47  A    between atoms: _110  and  _111
REMARK   48  A    between atoms: _110  and  _113
REMARK   49  A    between atoms: _113  and  _114
REMARK   50  A    between atoms: _117  and  _119
REMARK   51  A    between atoms: _119  and  _120
REMARK   52  A    between atoms: _119  and  _122
REMARK   53  A    between atoms: _125  and  _127
REMARK   54  A    between atoms: _127  and  _128
REMARK   55  A    between atoms: _127  and  _130
REMARK   56  A    between atoms: _130  and  _131
REMARK   57  A    between atoms: _131  and  _132
REMARK   58  A    between atoms: _132  and  _133
REMARK   59  A    between atoms: _142  and  _144
REMARK   60  A    between atoms: _144  and  _145
REMARK   61  A    between atoms: _144  and  _147
REMARK   62  A    between atoms: _147  and  _148
REMARK   63  A    between atoms: _153  and  _155
REMARK   64  A    between atoms: _155  and  _156
REMARK   65  A    between atoms: _155  and  _158
REMARK   66  A    between atoms: _158  and  _159
REMARK   67  A    between atoms: _159  and  _160
REMARK   68  A    between atoms: _163  and  _165
REMARK   69  A    between atoms: _165  and  _166
REMARK   70  A    between atoms: _165  and  _168
REMARK   71  A    between atoms: _168  and  _169
REMARK   72  A    between atoms: _169  and  _170
REMARK   73  A    between atoms: _170  and  _171
REMARK   74  A    between atoms: _171  and  _172
REMARK   75  A    between atoms: _176  and  _178
REMARK   76  A    between atoms: _178  and  _179
REMARK   77  A    between atoms: _181  and  _183
REMARK   78  A    between atoms: _183  and  _184
REMARK   79  A    between atoms: _183  and  _186
REMARK   80  A    between atoms: _189  and  _191
REMARK   81  A    between atoms: _191  and  _192
REMARK   82  A    between atoms: _191  and  _194
REMARK   83  A    between atoms: _194  and  _195
REMARK   84  A    between atoms: _197  and  _199
REMARK   85  A    between atoms: _199  and  _200
REMARK   86  A    between atoms: _199  and  _202
REMARK   87  A    between atoms: _202  and  _203
REMARK   88  A    between atoms: _205  and  _207
REMARK   89  A    between atoms: _207  and  _208
REMARK   90  A    between atoms: _207  and  _210
REMARK   91  A    between atoms: _210  and  _211
REMARK   92  A    between atoms: _217  and  _219
REMARK   93  A    between atoms: _219  and  _220
REMARK   94  A    between atoms: _219  and  _222
REMARK   95  A    between atoms: _222  and  _223
REMARK   96  A    between atoms: _226  and  _228
REMARK   97  A    between atoms: _228  and  _229
REMARK   98  A    between atoms: _228  and  _231
REMARK   99  A    between atoms: _231  and  _232
REMARK  100  A    between atoms: _235  and  _237
REMARK  101  A    between atoms: _237  and  _238
REMARK  102  A    between atoms: _237  and  _240
REMARK  103  A    between atoms: _240  and  _241
REMARK  104  A    between atoms: _244  and  _246
REMARK  105  A    between atoms: _246  and  _247
REMARK  106  A    between atoms: _246  and  _249
REMARK  107  A    between atoms: _249  and  _250
REMARK  108  A    between atoms: _250  and  _251
REMARK  109  A    between atoms: _253  and  _255
REMARK  110  A    between atoms: _255  and  _256
REMARK  111  A    between atoms: _255  and  _258
REMARK  112  A    between atoms: _258  and  _259
REMARK  113  A    between atoms: _265  and  _267
REMARK  114  A    between atoms: _267  and  _268
REMARK  115  A    between atoms: _267  and  _270
REMARK  116  A    between atoms: _272  and  _274
REMARK  117  A    between atoms: _274  and  _275
REMARK  118  A    between atoms: _278  and  _280
REMARK  119  A    between atoms: _280  and  _281
REMARK  120  A    between atoms: _283  and  _285
REMARK  121  A    between atoms: _285  and  _286
REMARK  122  A    between atoms: _285  and  _288
REMARK  123  A    between atoms: _288  and  _289
REMARK  124  A    between atoms: _289  and  _290
REMARK  125  A    between atoms: _293  and  _295
REMARK  126  A    between atoms: _295  and  _296
REMARK  127  A    between atoms: _295  and  _298
REMARK  128  A    between atoms: _298  and  _299
REMARK  129  A    between atoms: _302  and  _304
REMARK  130  A    between atoms: _304  and  _305
REMARK  131  A    between atoms: _308  and  _310
REMARK  132  A    between atoms: _310  and  _311
REMARK  133  A    between atoms: _310  and  _313
REMARK  134  A    between atoms: _313  and  _314
REMARK  135  A    between atoms: _314  and  _437
REMARK  136  A    between atoms: _315  and  _317
REMARK  137  A    between atoms: _317  and  _318
REMARK  138  A    between atoms: _317  and  _320
REMARK  139  A    between atoms: _320  and  _321
REMARK  140  A    between atoms: _321  and  _322
REMARK  141  A    between atoms: _327  and  _329
REMARK  142  A    between atoms: _329  and  _330
REMARK  143  A    between atoms: _332  and  _334
REMARK  144  A    between atoms: _334  and  _335
REMARK  145  A    between atoms: _334  and  _337
REMARK  146  A    between atoms: _337  and  _338
REMARK  147  A    between atoms: _341  and  _343
REMARK  148  A    between atoms: _343  and  _344
REMARK  149  A    between atoms: _343  and  _346
REMARK  150  A    between atoms: _346  and  _347
REMARK  151  A    between atoms: _349  and  _351
REMARK  152  A    between atoms: _351  and  _352
REMARK  153  A    between atoms: _354  and  _356
REMARK  154  A    between atoms: _356  and  _357
REMARK  155  A    between atoms: _359  and  _361
REMARK  156  A    between atoms: _361  and  _362
REMARK  157  A    between atoms: _361  and  _364
REMARK  158  A    between atoms: _364  and  _365
REMARK  159  A    between atoms: _370  and  _372
REMARK  160  A    between atoms: _372  and  _373
REMARK  161  A    between atoms: _372  and  _375
REMARK  162  A    between atoms: _375  and  _376
REMARK  163  A    between atoms: _379  and  _381
REMARK  164  A    between atoms: _381  and  _382
REMARK  165  A    between atoms: _381  and  _384
REMARK  166  A    between atoms: _387  and  _389
REMARK  167  A    between atoms: _389  and  _390
REMARK  168  A    between atoms: _389  and  _392
REMARK  169  A    between atoms: _392  and  _393
REMARK  170  A    between atoms: _395  and  _397
REMARK  171  A    between atoms: _397  and  _398
REMARK  172  A    between atoms: _397  and  _400
REMARK  173  A    between atoms: _400  and  _401
REMARK  174  A    between atoms: _411  and  _413
REMARK  175  A    between atoms: _413  and  _414
REMARK  176  A    between atoms: _416  and  _418
REMARK  177  A    between atoms: _418  and  _419
REMARK  178  A    between atoms: _418  and  _421
REMARK  179  A    between atoms: _421  and  _422
REMARK  180  A    between atoms: _422  and  _423
REMARK  181  A    between atoms: _426  and  _428
REMARK  182  A    between atoms: _428  and  _429
REMARK  183  A    between atoms: _431  and  _433
REMARK  184  A    between atoms: _433  and  _434
REMARK  185  A    between atoms: _433  and  _436
REMARK  186  A    between atoms: _436  and  _437
REMARK  187  A    between atoms: _438  and  _440
REMARK  188  A    between atoms: _440  and  _441
REMARK  189  A    between atoms: _444  and  _446
REMARK  190  A    between atoms: _446  and  _447
REMARK  191  A    between atoms: _446  and  _449
REMARK  192  A    between atoms: _449  and  _450
REMARK  193  A    between atoms: _450  and  _451
REMARK  194  A    between atoms: _451  and  _452
REMARK  195  A    between atoms: _461  and  _463
REMARK  196  A    between atoms: _463  and  _464
REMARK  197  A    between atoms: _463  and  _466
REMARK  198  A    between atoms: _466  and  _467
REMARK  199  A    between atoms: _467  and  _468
REMARK  200  A    between atoms: _468  and  _469
REMARK  201  A    between atoms: _469  and  _470
REMARK  202  A    between atoms: _474  and  _476
REMARK  203  A    between atoms: _476  and  _477
REMARK  204  A    between atoms: _476  and  _479
REMARK  205  A    between atoms: _479  and  _480
REMARK  206  A    between atoms: _485  and  _486
REMARK  207  A    between atoms: _488  and  _490
REMARK  208  A    between atoms: _490  and  _491
REMARK  209  A    between atoms: _493  and  _495
REMARK  210  A    between atoms: _495  and  _496
REMARK  211  A    between atoms: _495  and  _498
REMARK  212  A    between atoms: _498  and  _499
REMARK  213  A    between atoms: _502  and  _504
REMARK  214  A    between atoms: _504  and  _505
REMARK  215  A    between atoms: _504  and  _507
REMARK  216  A    between atoms: _507  and  _508
REMARK  217  A    between atoms: _513  and  _514
REMARK  218  A    between atoms: _516  and  _518
REMARK  219  A    between atoms: _518  and  _519
REMARK  220  A    between atoms: _518  and  _521
REMARK  221  A    between atoms: _521  and  _522
REMARK                            x       y       z     vdW  Elec       q    Type
REMARK                         _______ _______ _______ _____ _____    ______ ____
ROOT
ATOM      1  O   HOH     1       3.791  53.512   5.152  0.00  0.00    +0.000 OA
ENDROOT
TORSDOF 0
REMARK  Name = ../refined-set-2016/2xbx/2xbx_pocket.pdb
REMARK  221 active torsions:
REMARK  status: ('A' for Active; 'I' for Inactive)
REMARK    1  A    between atoms: _1  and  _3
REMARK    2  A    between atoms: _3  and  _4
REMARK    3  A    between atoms: _3  and  _6
REMARK    4  A    between atoms: _9  and  _11
REMARK    5  A    between atoms: _11  and  _12
REMARK    6  A    between atoms: _11  and  _14
REMARK    7  A    between atoms: _14  and  _15
REMARK    8  A    between atoms: _20  and  _22
REMARK    9  A    between atoms: _22  and  _23
REMARK   10  A    between atoms: _22  and  _25
REMARK   11  A    between atoms: _25  and  _26
REMARK   12  A    between atoms: _26  and  _27
REMARK   13  A    between atoms: _32  and  _34
REMARK   14  A    between atoms: _34  and  _35
REMARK   15  A    between atoms: _34  and  _37
REMARK   16  A    between atoms: _37  and  _38
REMARK   17  A    between atoms: _44  and  _46
REMARK   18  A    between atoms: _46  and  _47
REMARK   19  A    between atoms: _46  and  _49
REMARK   20  A    between atoms: _49  and  _50
REMARK   21  A    between atoms: _53  and  _55
REMARK   22  A    between atoms: _55  and  _56
REMARK   23  A    between atoms: _55  and  _58
REMARK   24  A    between atoms: _58  and  _59
REMARK   25  A    between atoms: _59  and  _60
REMARK   26  A    between atoms: _60  and  _61
REMARK   27  A    between atoms: _61  and  _62
REMARK   28  A    between atoms: _66  and  _68
REMARK   29  A    between atoms: _68  and  _69
REMARK   30  A    between atoms: _68  and  _71
REMARK   31  A    between atoms: _71  and  _72
REMARK   32  A    between atoms: _72  and  _73
REMARK   33  A    between atoms: _76  and  _78
REMARK   34  A    between atoms: _78  and  _79
REMARK   35  A    between atoms: _78  and  _81
REMARK   36  A    between atoms: _81  and  _82
REMARK   37  A    between atoms: _85  and  _87
REMARK   38  A    between atoms: _87  and  _88
REMARK   39  A    between atoms: _87  and  _90
REMARK   40  A    between atoms: _90  and  _91
REMARK   41  A    between atoms: _96  and  _97
REMARK   42  A    between atoms: _99  and  _101
REMARK   43  A    between atoms: _101  and  _102
REMARK   44  A    between atoms: _101  and  _104
REMARK   45  A    between atoms: _104  and  _105
REMARK   46  A    between atoms: _108  and  _110
REMARK   47  A    between atoms: _110  and  _111
REMARK   48  A    between atoms: _110  and  _113
REMARK   49  A    between atoms: _113  and  _114
REMARK   50  A    between atoms: _117  and  _119
REMARK   51  A    between atoms: _119  and  _120
REMARK   52  A    between atoms: _119  and  _122
REMARK   53  A    between atoms: _125  and  _127
REMARK   54  A    between atoms: _127  and  _128
REMARK   55  A    between atoms: _127  and  _130
REMARK   56  A    between atoms: _130  and  _131
REMARK   57  A    between atoms: _131  and  _132
REMARK   58  A    between atoms: _132  and  _133
REMARK   59  A    between atoms: _142  and  _144
REMARK   60  A    between atoms: _144  and  _145
REMARK   61  A    between atoms: _144  and  _147
REMARK   62  A    between atoms: _147  and  _148
REMARK   63  A    between atoms: _153  and  _155
REMARK   64  A    between atoms: _155  and  _156
REMARK   65  A    between atoms: _155  and  _158
REMARK   66  A    between atoms: _158  and  _159
REMARK   67  A    between atoms: _159  and  _160
REMARK   68  A    between atoms: _163  and  _165
REMARK   69  A    between atoms: _165  and  _166
REMARK   70  A    between atoms: _165  and  _168
REMARK   71  A    between atoms: _168  and  _169
REMARK   72  A    between atoms: _169  and  _170
REMARK   73  A    between atoms: _170  and  _171
REMARK   74  A    between atoms: _171  and  _172
REMARK   75  A    between atoms: _176  and  _178
REMARK   76  A    between atoms: _178  and  _179
REMARK   77  A    between atoms: _181  and  _183
REMARK   78  A    between atoms: _183  and  _184
REMARK   79  A    between atoms: _183  and  _186
REMARK   80  A    between atoms: _189  and  _191
REMARK   81  A    between atoms: _191  and  _192
REMARK   82  A    between atoms: _191  and  _194
REMARK   83  A    between atoms: _194  and  _195
REMARK   84  A    between atoms: _197  and  _199
REMARK   85  A    between atoms: _199  and  _200
REMARK   86  A    between atoms: _199  and  _202
REMARK   87  A    between atoms: _202  and  _203
REMARK   88  A    between atoms: _205  and  _207
REMARK   89  A    between atoms: _207  and  _208
REMARK   90  A    between atoms: _207  and  _210
REMARK   91  A    between atoms: _210  and  _211
REMARK   92  A    between atoms: _217  and  _219
REMARK   93  A    between atoms: _219  and  _220
REMARK   94  A    between atoms: _219  and  _222
REMARK   95  A    between atoms: _222  and  _223
REMARK   96  A    between atoms: _226  and  _228
REMARK   97  A    between atoms: _228  and  _229
REMARK   98  A    between atoms: _228  and  _231
REMARK   99  A    between atoms: _231  and  _232
REMARK  100  A    between atoms: _235  and  _237
REMARK  101  A    between atoms: _237  and  _238
REMARK  102  A    between atoms: _237  and  _240
REMARK  103  A    between atoms: _240  and  _241
REMARK  104  A    between atoms: _244  and  _246
REMARK  105  A    between atoms: _246  and  _247
REMARK  106  A    between atoms: _246  and  _249
REMARK  107  A    between atoms: _249  and  _250
REMARK  108  A    between atoms: _250  and  _251
REMARK  109  A    between atoms: _253  and  _255
REMARK  110  A    between atoms: _255  and  _256
REMARK  111  A    between atoms: _255  and  _258
REMARK  112  A    between atoms: _258  and  _259
REMARK  113  A    between atoms: _265  and  _267
REMARK  114  A    between atoms: _267  and  _268
REMARK  115  A    between atoms: _267  and  _270
REMARK  116  A    between atoms: _272  and  _274
REMARK  117  A    between atoms: _274  and  _275
REMARK  118  A    between atoms: _278  and  _280
REMARK  119  A    between atoms: _280  and  _281
REMARK  120  A    between atoms: _283  and  _285
REMARK  121  A    between atoms: _285  and  _286
REMARK  122  A    between atoms: _285  and  _288
REMARK  123  A    between atoms: _288  and  _289
REMARK  124  A    between atoms: _289  and  _290
REMARK  125  A    between atoms: _293  and  _295
REMARK  126  A    between atoms: _295  and  _296
REMARK  127  A    between atoms: _295  and  _298
REMARK  128  A    between atoms: _298  and  _299
REMARK  129  A    between atoms: _302  and  _304
REMARK  130  A    between atoms: _304  and  _305
REMARK  131  A    between atoms: _308  and  _310
REMARK  132  A    between atoms: _310  and  _311
REMARK  133  A    between atoms: _310  and  _313
REMARK  134  A    between atoms: _313  and  _314
REMARK  135  A    between atoms: _314  and  _437
REMARK  136  A    between atoms: _315  and  _317
REMARK  137  A    between atoms: _317  and  _318
REMARK  138  A    between atoms: _317  and  _320
REMARK  139  A    between atoms: _320  and  _321
REMARK  140  A    between atoms: _321  and  _322
REMARK  141  A    between atoms: _327  and  _329
REMARK  142  A    between atoms: _329  and  _330
REMARK  143  A    between atoms: _332  and  _334
REMARK  144  A    between atoms: _334  and  _335
REMARK  145  A    between atoms: _334  and  _337
REMARK  146  A    between atoms: _337  and  _338
REMARK  147  A    between atoms: _341  and  _343
REMARK  148  A    between atoms: _343  and  _344
REMARK  149  A    between atoms: _343  and  _346
REMARK  150  A    between atoms: _346  and  _347
REMARK  151  A    between atoms: _349  and  _351
REMARK  152  A    between atoms: _351  and  _352
REMARK  153  A    between atoms: _354  and  _356
REMARK  154  A    between atoms: _356  and  _357
REMARK  155  A    between atoms: _359  and  _361
REMARK  156  A    between atoms: _361  and  _362
REMARK  157  A    between atoms: _361  and  _364
REMARK  158  A    between atoms: _364  and  _365
REMARK  159  A    between atoms: _370  and  _372
REMARK  160  A    between atoms: _372  and  _373
REMARK  161  A    between atoms: _372  and  _375
REMARK  162  A    between atoms: _375  and  _376
REMARK  163  A    between atoms: _379  and  _381
REMARK  164  A    between atoms: _381  and  _382
REMARK  165  A    between atoms: _381  and  _384
REMARK  166  A    between atoms: _387  and  _389
REMARK  167  A    between atoms: _389  and  _390
REMARK  168  A    between atoms: _389  and  _392
REMARK  169  A    between atoms: _392  and  _393
REMARK  170  A    between atoms: _395  and  _397
REMARK  171  A    between atoms: _397  and  _398
REMARK  172  A    between atoms: _397  and  _400
REMARK  173  A    between atoms: _400  and  _401
REMARK  174  A    between atoms: _411  and  _413
REMARK  175  A    between atoms: _413  and  _414
REMARK  176  A    between atoms: _416  and  _418
REMARK  177  A    between atoms: _418  and  _419
REMARK  178  A    between atoms: _418  and  _421
REMARK  179  A    between atoms: _421  and  _422
REMARK  180  A    between atoms: _422  and  _423
REMARK  181  A    between atoms: _426  and  _428
REMARK  182  A    between atoms: _428  and  _429
REMARK  183  A    between atoms: _431  and  _433
REMARK  184  A    between atoms: _433  and  _434
REMARK  185  A    between atoms: _433  and  _436
REMARK  186  A    between atoms: _436  and  _437
REMARK  187  A    between atoms: _438  and  _440
REMARK  188  A    between atoms: _440  and  _441
REMARK  189  A    between atoms: _444  and  _446
REMARK  190  A    between atoms: _446  and  _447
REMARK  191  A    between atoms: _446  and  _449
REMARK  192  A    between atoms: _449  and  _450
REMARK  193  A    between atoms: _450  and  _451
REMARK  194  A    between atoms: _451  and  _452
REMARK  195  A    between atoms: _461  and  _463
REMARK  196  A    between atoms: _463  and  _464
REMARK  197  A    between atoms: _463  and  _466
REMARK  198  A    between atoms: _466  and  _467
REMARK  199  A    between atoms: _467  and  _468
REMARK  200  A    between atoms: _468  and  _469
REMARK  201  A    between atoms: _469  and  _470
REMARK  202  A    between atoms: _474  and  _476
REMARK  203  A    between atoms: _476  and  _477
REMARK  204  A    between atoms: _476  and  _479
REMARK  205  A    between atoms: _479  and  _480
REMARK  206  A    between atoms: _485  and  _486
REMARK  207  A    between atoms: _488  and  _490
REMARK  208  A    between atoms: _490  and  _491
REMARK  209  A    between atoms: _493  and  _495
REMARK  210  A    between atoms: _495  and  _496
REMARK  211  A    between atoms: _495  and  _498
REMARK  212  A    between atoms: _498  and  _499
REMARK  213  A    between atoms: _502  and  _504
REMARK  214  A    between atoms: _504  and  _505
REMARK  215  A    between atoms: _504  and  _507
REMARK  216  A    between atoms: _507  and  _508
REMARK  217  A    between atoms: _513  and  _514
REMARK  218  A    between atoms: _516  and  _518
REMARK  219  A    between atoms: _518  and  _519
REMARK  220  A    between atoms: _518  and  _521
REMARK  221  A    between atoms: _521  and  _522
REMARK                            x       y       z     vdW  Elec       q    Type
REMARK                         _______ _______ _______ _____ _____    ______ ____
ROOT
ATOM      1  O   HOH     1      16.187  65.774  14.106  0.00  0.00    +0.000 OA
ENDROOT
TORSDOF 0
REMARK  Name = ../refined-set-2016/2xbx/2xbx_pocket.pdb
REMARK  221 active torsions:
REMARK  status: ('A' for Active; 'I' for Inactive)
REMARK    1  A    between atoms: _1  and  _3
REMARK    2  A    between atoms: _3  and  _4
REMARK    3  A    between atoms: _3  and  _6
REMARK    4  A    between atoms: _9  and  _11
REMARK    5  A    between atoms: _11  and  _12
REMARK    6  A    between atoms: _11  and  _14
REMARK    7  A    between atoms: _14  and  _15
REMARK    8  A    between atoms: _20  and  _22
REMARK    9  A    between atoms: _22  and  _23
REMARK   10  A    between atoms: _22  and  _25
REMARK   11  A    between atoms: _25  and  _26
REMARK   12  A    between atoms: _26  and  _27
REMARK   13  A    between atoms: _32  and  _34
REMARK   14  A    between atoms: _34  and  _35
REMARK   15  A    between atoms: _34  and  _37
REMARK   16  A    between atoms: _37  and  _38
REMARK   17  A    between atoms: _44  and  _46
REMARK   18  A    between atoms: _46  and  _47
REMARK   19  A    between atoms: _46  and  _49
REMARK   20  A    between atoms: _49  and  _50
REMARK   21  A    between atoms: _53  and  _55
REMARK   22  A    between atoms: _55  and  _56
REMARK   23  A    between atoms: _55  and  _58
REMARK   24  A    between atoms: _58  and  _59
REMARK   25  A    between atoms: _59  and  _60
REMARK   26  A    between atoms: _60  and  _61
REMARK   27  A    between atoms: _61  and  _62
REMARK   28  A    between atoms: _66  and  _68
REMARK   29  A    between atoms: _68  and  _69
REMARK   30  A    between atoms: _68  and  _71
REMARK   31  A    between atoms: _71  and  _72
REMARK   32  A    between atoms: _72  and  _73
REMARK   33  A    between atoms: _76  and  _78
REMARK   34  A    between atoms: _78  and  _79
REMARK   35  A    between atoms: _78  and  _81
REMARK   36  A    between atoms: _81  and  _82
REMARK   37  A    between atoms: _85  and  _87
REMARK   38  A    between atoms: _87  and  _88
REMARK   39  A    between atoms: _87  and  _90
REMARK   40  A    between atoms: _90  and  _91
REMARK   41  A    between atoms: _96  and  _97
REMARK   42  A    between atoms: _99  and  _101
REMARK   43  A    between atoms: _101  and  _102
REMARK   44  A    between atoms: _101  and  _104
REMARK   45  A    between atoms: _104  and  _105
REMARK   46  A    between atoms: _108  and  _110
REMARK   47  A    between atoms: _110  and  _111
REMARK   48  A    between atoms: _110  and  _113
REMARK   49  A    between atoms: _113  and  _114
REMARK   50  A    between atoms: _117  and  _119
REMARK   51  A    between atoms: _119  and  _120
REMARK   52  A    between atoms: _119  and  _122
REMARK   53  A    between atoms: _125  and  _127
REMARK   54  A    between atoms: _127  and  _128
REMARK   55  A    between atoms: _127  and  _130
REMARK   56  A    between atoms: _130  and  _131
REMARK   57  A    between atoms: _131  and  _132
REMARK   58  A    between atoms: _132  and  _133
REMARK   59  A    between atoms: _142  and  _144
REMARK   60  A    between atoms: _144  and  _145
REMARK   61  A    between atoms: _144  and  _147
REMARK   62  A    between atoms: _147  and  _148
REMARK   63  A    between atoms: _153  and  _155
REMARK   64  A    between atoms: _155  and  _156
REMARK   65  A    between atoms: _155  and  _158
REMARK   66  A    between atoms: _158  and  _159
REMARK   67  A    between atoms: _159  and  _160
REMARK   68  A    between atoms: _163  and  _165
REMARK   69  A    between atoms: _165  and  _166
REMARK   70  A    between atoms: _165  and  _168
REMARK   71  A    between atoms: _168  and  _169
REMARK   72  A    between atoms: _169  and  _170
REMARK   73  A    between atoms: _170  and  _171
REMARK   74  A    between atoms: _171  and  _172
REMARK   75  A    between atoms: _176  and  _178
REMARK   76  A    between atoms: _178  and  _179
REMARK   77  A    between atoms: _181  and  _183
REMARK   78  A    between atoms: _183  and  _184
REMARK   79  A    between atoms: _183  and  _186
REMARK   80  A    between atoms: _189  and  _191
REMARK   81  A    between atoms: _191  and  _192
REMARK   82  A    between atoms: _191  and  _194
REMARK   83  A    between atoms: _194  and  _195
REMARK   84  A    between atoms: _197  and  _199
REMARK   85  A    between atoms: _199  and  _200
REMARK   86  A    between atoms: _199  and  _202
REMARK   87  A    between atoms: _202  and  _203
REMARK   88  A    between atoms: _205  and  _207
REMARK   89  A    between atoms: _207  and  _208
REMARK   90  A    between atoms: _207  and  _210
REMARK   91  A    between atoms: _210  and  _211
REMARK   92  A    between atoms: _217  and  _219
REMARK   93  A    between atoms: _219  and  _220
REMARK   94  A    between atoms: _219  and  _222
REMARK   95  A    between atoms: _222  and  _223
REMARK   96  A    between atoms: _226  and  _228
REMARK   97  A    between atoms: _228  and  _229
REMARK   98  A    between atoms: _228  and  _231
REMARK   99  A    between atoms: _231  and  _232
REMARK  100  A    between atoms: _235  and  _237
REMARK  101  A    between atoms: _237  and  _238
REMARK  102  A    between atoms: _237  and  _240
REMARK  103  A    between atoms: _240  and  _241
REMARK  104  A    between atoms: _244  and  _246
REMARK  105  A    between atoms: _246  and  _247
REMARK  106  A    between atoms: _246  and  _249
REMARK  107  A    between atoms: _249  and  _250
REMARK  108  A    between atoms: _250  and  _251
REMARK  109  A    between atoms: _253  and  _255
REMARK  110  A    between atoms: _255  and  _256
REMARK  111  A    between atoms: _255  and  _258
REMARK  112  A    between atoms: _258  and  _259
REMARK  113  A    between atoms: _265  and  _267
REMARK  114  A    between atoms: _267  and  _268
REMARK  115  A    between atoms: _267  and  _270
REMARK  116  A    between atoms: _272  and  _274
REMARK  117  A    between atoms: _274  and  _275
REMARK  118  A    between atoms: _278  and  _280
REMARK  119  A    between atoms: _280  and  _281
REMARK  120  A    between atoms: _283  and  _285
REMARK  121  A    between atoms: _285  and  _286
REMARK  122  A    between atoms: _285  and  _288
REMARK  123  A    between atoms: _288  and  _289
REMARK  124  A    between atoms: _289  and  _290
REMARK  125  A    between atoms: _293  and  _295
REMARK  126  A    between atoms: _295  and  _296
REMARK  127  A    between atoms: _295  and  _298
REMARK  128  A    between atoms: _298  and  _299
REMARK  129  A    between atoms: _302  and  _304
REMARK  130  A    between atoms: _304  and  _305
REMARK  131  A    between atoms: _308  and  _310
REMARK  132  A    between atoms: _310  and  _311
REMARK  133  A    between atoms: _310  and  _313
REMARK  134  A    between atoms: _313  and  _314
REMARK  135  A    between atoms: _314  and  _437
REMARK  136  A    between atoms: _315  and  _317
REMARK  137  A    between atoms: _317  and  _318
REMARK  138  A    between atoms: _317  and  _320
REMARK  139  A    between atoms: _320  and  _321
REMARK  140  A    between atoms: _321  and  _322
REMARK  141  A    between atoms: _327  and  _329
REMARK  142  A    between atoms: _329  and  _330
REMARK  143  A    between atoms: _332  and  _334
REMARK  144  A    between atoms: _334  and  _335
REMARK  145  A    between atoms: _334  and  _337
REMARK  146  A    between atoms: _337  and  _338
REMARK  147  A    between atoms: _341  and  _343
REMARK  148  A    between atoms: _343  and  _344
REMARK  149  A    between atoms: _343  and  _346
REMARK  150  A    between atoms: _346  and  _347
REMARK  151  A    between atoms: _349  and  _351
REMARK  152  A    between atoms: _351  and  _352
REMARK  153  A    between atoms: _354  and  _356
REMARK  154  A    between atoms: _356  and  _357
REMARK  155  A    between atoms: _359  and  _361
REMARK  156  A    between atoms: _361  and  _362
REMARK  157  A    between atoms: _361  and  _364
REMARK  158  A    between atoms: _364  and  _365
REMARK  159  A    between atoms: _370  and  _372
REMARK  160  A    between atoms: _372  and  _373
REMARK  161  A    between atoms: _372  and  _375
REMARK  162  A    between atoms: _375  and  _376
REMARK  163  A    between atoms: _379  and  _381
REMARK  164  A    between atoms: _381  and  _382
REMARK  165  A    between atoms: _381  and  _384
REMARK  166  A    between atoms: _387  and  _389
REMARK  167  A    between atoms: _389  and  _390
REMARK  168  A    between atoms: _389  and  _392
REMARK  169  A    between atoms: _392  and  _393
REMARK  170  A    between atoms: _395  and  _397
REMARK  171  A    between atoms: _397  and  _398
REMARK  172  A    between atoms: _397  and  _400
REMARK  173  A    between atoms: _400  and  _401
REMARK  174  A    between atoms: _411  and  _413
REMARK  175  A    between atoms: _413  and  _414
REMARK  176  A    between atoms: _416  and  _418
REMARK  177  A    between atoms: _418  and  _419
REMARK  178  A    between atoms: _418  and  _421
REMARK  179  A    between atoms: _421  and  _422
REMARK  180  A    between atoms: _422  and  _423
REMARK  181  A    between atoms: _426  and  _428
REMARK  182  A    between atoms: _428  and  _429
REMARK  183  A    between atoms: _431  and  _433
REMARK  184  A    between atoms: _433  and  _434
REMARK  185  A    between atoms: _433  and  _436
REMARK  186  A    between atoms: _436  and  _437
REMARK  187  A    between atoms: _438  and  _440
REMARK  188  A    between atoms: _440  and  _441
REMARK  189  A    between atoms: _444  and  _446
REMARK  190  A    between atoms: _446  and  _447
REMARK  191  A    between atoms: _446  and  _449
REMARK  192  A    between atoms: _449  and  _450
REMARK  193  A    between atoms: _450  and  _451
REMARK  194  A    between atoms: _451  and  _452
REMARK  195  A    between atoms: _461  and  _463
REMARK  196  A    between atoms: _463  and  _464
REMARK  197  A    between atoms: _463  and  _466
REMARK  198  A    between atoms: _466  and  _467
REMARK  199  A    between atoms: _467  and  _468
REMARK  200  A    between atoms: _468  and  _469
REMARK  201  A    between atoms: _469  and  _470
REMARK  202  A    between atoms: _474  and  _476
REMARK  203  A    between atoms: _476  and  _477
REMARK  204  A    between atoms: _476  and  _479
REMARK  205  A    between atoms: _479  and  _480
REMARK  206  A    between atoms: _485  and  _486
REMARK  207  A    between atoms: _488  and  _490
REMARK  208  A    between atoms: _490  and  _491
REMARK  209  A    between atoms: _493  and  _495
REMARK  210  A    between atoms: _495  and  _496
REMARK  211  A    between atoms: _495  and  _498
REMARK  212  A    between atoms: _498  and  _499
REMARK  213  A    between atoms: _502  and  _504
REMARK  214  A    between atoms: _504  and  _505
REMARK  215  A    between atoms: _504  and  _507
REMARK  216  A    between atoms: _507  and  _508
REMARK  217  A    between atoms: _513  and  _514
REMARK  218  A    between atoms: _516  and  _518
REMARK  219  A    between atoms: _518  and  _519
REMARK  220  A    between atoms: _518  and  _521
REMARK  221  A    between atoms: _521  and  _522
REMARK                            x       y       z     vdW  Elec       q    Type
REMARK                         _______ _______ _______ _____ _____    ______ ____
ROOT
ATOM      1  O   HOH     1      12.241  64.862   9.938  0.00  0.00    +0.000 OA
ENDROOT
TORSDOF 0
REMARK  Name = ../refined-set-2016/2xbx/2xbx_pocket.pdb
REMARK  221 active torsions:
REMARK  status: ('A' for Active; 'I' for Inactive)
REMARK    1  A    between atoms: _1  and  _3
REMARK    2  A    between atoms: _3  and  _4
REMARK    3  A    between atoms: _3  and  _6
REMARK    4  A    between atoms: _9  and  _11
REMARK    5  A    between atoms: _11  and  _12
REMARK    6  A    between atoms: _11  and  _14
REMARK    7  A    between atoms: _14  and  _15
REMARK    8  A    between atoms: _20  and  _22
REMARK    9  A    between atoms: _22  and  _23
REMARK   10  A    between atoms: _22  and  _25
REMARK   11  A    between atoms: _25  and  _26
REMARK   12  A    between atoms: _26  and  _27
REMARK   13  A    between atoms: _32  and  _34
REMARK   14  A    between atoms: _34  and  _35
REMARK   15  A    between atoms: _34  and  _37
REMARK   16  A    between atoms: _37  and  _38
REMARK   17  A    between atoms: _44  and  _46
REMARK   18  A    between atoms: _46  and  _47
REMARK   19  A    between atoms: _46  and  _49
REMARK   20  A    between atoms: _49  and  _50
REMARK   21  A    between atoms: _53  and  _55
REMARK   22  A    between atoms: _55  and  _56
REMARK   23  A    between atoms: _55  and  _58
REMARK   24  A    between atoms: _58  and  _59
REMARK   25  A    between atoms: _59  and  _60
REMARK   26  A    between atoms: _60  and  _61
REMARK   27  A    between atoms: _61  and  _62
REMARK   28  A    between atoms: _66  and  _68
REMARK   29  A    between atoms: _68  and  _69
REMARK   30  A    between atoms: _68  and  _71
REMARK   31  A    between atoms: _71  and  _72
REMARK   32  A    between atoms: _72  and  _73
REMARK   33  A    between atoms: _76  and  _78
REMARK   34  A    between atoms: _78  and  _79
REMARK   35  A    between atoms: _78  and  _81
REMARK   36  A    between atoms: _81  and  _82
REMARK   37  A    between atoms: _85  and  _87
REMARK   38  A    between atoms: _87  and  _88
REMARK   39  A    between atoms: _87  and  _90
REMARK   40  A    between atoms: _90  and  _91
REMARK   41  A    between atoms: _96  and  _97
REMARK   42  A    between atoms: _99  and  _101
REMARK   43  A    between atoms: _101  and  _102
REMARK   44  A    between atoms: _101  and  _104
REMARK   45  A    between atoms: _104  and  _105
REMARK   46  A    between atoms: _108  and  _110
REMARK   47  A    between atoms: _110  and  _111
REMARK   48  A    between atoms: _110  and  _113
REMARK   49  A    between atoms: _113  and  _114
REMARK   50  A    between atoms: _117  and  _119
REMARK   51  A    between atoms: _119  and  _120
REMARK   52  A    between atoms: _119  and  _122
REMARK   53  A    between atoms: _125  and  _127
REMARK   54  A    between atoms: _127  and  _128
REMARK   55  A    between atoms: _127  and  _130
REMARK   56  A    between atoms: _130  and  _131
REMARK   57  A    between atoms: _131  and  _132
REMARK   58  A    between atoms: _132  and  _133
REMARK   59  A    between atoms: _142  and  _144
REMARK   60  A    between atoms: _144  and  _145
REMARK   61  A    between atoms: _144  and  _147
REMARK   62  A    between atoms: _147  and  _148
REMARK   63  A    between atoms: _153  and  _155
REMARK   64  A    between atoms: _155  and  _156
REMARK   65  A    between atoms: _155  and  _158
REMARK   66  A    between atoms: _158  and  _159
REMARK   67  A    between atoms: _159  and  _160
REMARK   68  A    between atoms: _163  and  _165
REMARK   69  A    between atoms: _165  and  _166
REMARK   70  A    between atoms: _165  and  _168
REMARK   71  A    between atoms: _168  and  _169
REMARK   72  A    between atoms: _169  and  _170
REMARK   73  A    between atoms: _170  and  _171
REMARK   74  A    between atoms: _171  and  _172
REMARK   75  A    between atoms: _176  and  _178
REMARK   76  A    between atoms: _178  and  _179
REMARK   77  A    between atoms: _181  and  _183
REMARK   78  A    between atoms: _183  and  _184
REMARK   79  A    between atoms: _183  and  _186
REMARK   80  A    between atoms: _189  and  _191
REMARK   81  A    between atoms: _191  and  _192
REMARK   82  A    between atoms: _191  and  _194
REMARK   83  A    between atoms: _194  and  _195
REMARK   84  A    between atoms: _197  and  _199
REMARK   85  A    between atoms: _199  and  _200
REMARK   86  A    between atoms: _199  and  _202
REMARK   87  A    between atoms: _202  and  _203
REMARK   88  A    between atoms: _205  and  _207
REMARK   89  A    between atoms: _207  and  _208
REMARK   90  A    between atoms: _207  and  _210
REMARK   91  A    between atoms: _210  and  _211
REMARK   92  A    between atoms: _217  and  _219
REMARK   93  A    between atoms: _219  and  _220
REMARK   94  A    between atoms: _219  and  _222
REMARK   95  A    between atoms: _222  and  _223
REMARK   96  A    between atoms: _226  and  _228
REMARK   97  A    between atoms: _228  and  _229
REMARK   98  A    between atoms: _228  and  _231
REMARK   99  A    between atoms: _231  and  _232
REMARK  100  A    between atoms: _235  and  _237
REMARK  101  A    between atoms: _237  and  _238
REMARK  102  A    between atoms: _237  and  _240
REMARK  103  A    between atoms: _240  and  _241
REMARK  104  A    between atoms: _244  and  _246
REMARK  105  A    between atoms: _246  and  _247
REMARK  106  A    between atoms: _246  and  _249
REMARK  107  A    between atoms: _249  and  _250
REMARK  108  A    between atoms: _250  and  _251
REMARK  109  A    between atoms: _253  and  _255
REMARK  110  A    between atoms: _255  and  _256
REMARK  111  A    between atoms: _255  and  _258
REMARK  112  A    between atoms: _258  and  _259
REMARK  113  A    between atoms: _265  and  _267
REMARK  114  A    between atoms: _267  and  _268
REMARK  115  A    between atoms: _267  and  _270
REMARK  116  A    between atoms: _272  and  _274
REMARK  117  A    between atoms: _274  and  _275
REMARK  118  A    between atoms: _278  and  _280
REMARK  119  A    between atoms: _280  and  _281
REMARK  120  A    between atoms: _283  and  _285
REMARK  121  A    between atoms: _285  and  _286
REMARK  122  A    between atoms: _285  and  _288
REMARK  123  A    between atoms: _288  and  _289
REMARK  124  A    between atoms: _289  and  _290
REMARK  125  A    between atoms: _293  and  _295
REMARK  126  A    between atoms: _295  and  _296
REMARK  127  A    between atoms: _295  and  _298
REMARK  128  A    between atoms: _298  and  _299
REMARK  129  A    between atoms: _302  and  _304
REMARK  130  A    between atoms: _304  and  _305
REMARK  131  A    between atoms: _308  and  _310
REMARK  132  A    between atoms: _310  and  _311
REMARK  133  A    between atoms: _310  and  _313
REMARK  134  A    between atoms: _313  and  _314
REMARK  135  A    between atoms: _314  and  _437
REMARK  136  A    between atoms: _315  and  _317
REMARK  137  A    between atoms: _317  and  _318
REMARK  138  A    between atoms: _317  and  _320
REMARK  139  A    between atoms: _320  and  _321
REMARK  140  A    between atoms: _321  and  _322
REMARK  141  A    between atoms: _327  and  _329
REMARK  142  A    between atoms: _329  and  _330
REMARK  143  A    between atoms: _332  and  _334
REMARK  144  A    between atoms: _334  and  _335
REMARK  145  A    between atoms: _334  and  _337
REMARK  146  A    between atoms: _337  and  _338
REMARK  147  A    between atoms: _341  and  _343
REMARK  148  A    between atoms: _343  and  _344
REMARK  149  A    between atoms: _343  and  _346
REMARK  150  A    between atoms: _346  and  _347
REMARK  151  A    between atoms: _349  and  _351
REMARK  152  A    between atoms: _351  and  _352
REMARK  153  A    between atoms: _354  and  _356
REMARK  154  A    between atoms: _356  and  _357
REMARK  155  A    between atoms: _359  and  _361
REMARK  156  A    between atoms: _361  and  _362
REMARK  157  A    between atoms: _361  and  _364
REMARK  158  A    between atoms: _364  and  _365
REMARK  159  A    between atoms: _370  and  _372
REMARK  160  A    between atoms: _372  and  _373
REMARK  161  A    between atoms: _372  and  _375
REMARK  162  A    between atoms: _375  and  _376
REMARK  163  A    between atoms: _379  and  _381
REMARK  164  A    between atoms: _381  and  _382
REMARK  165  A    between atoms: _381  and  _384
REMARK  166  A    between atoms: _387  and  _389
REMARK  167  A    between atoms: _389  and  _390
REMARK  168  A    between atoms: _389  and  _392
REMARK  169  A    between atoms: _392  and  _393
REMARK  170  A    between atoms: _395  and  _397
REMARK  171  A    between atoms: _397  and  _398
REMARK  172  A    between atoms: _397  and  _400
REMARK  173  A    between atoms: _400  and  _401
REMARK  174  A    between atoms: _411  and  _413
REMARK  175  A    between atoms: _413  and  _414
REMARK  176  A    between atoms: _416  and  _418
REMARK  177  A    between atoms: _418  and  _419
REMARK  178  A    between atoms: _418  and  _421
REMARK  179  A    between atoms: _421  and  _422
REMARK  180  A    between atoms: _422  and  _423
REMARK  181  A    between atoms: _426  and  _428
REMARK  182  A    between atoms: _428  and  _429
REMARK  183  A    between atoms: _431  and  _433
REMARK  184  A    between atoms: _433  and  _434
REMARK  185  A    between atoms: _433  and  _436
REMARK  186  A    between atoms: _436  and  _437
REMARK  187  A    between atoms: _438  and  _440
REMARK  188  A    between atoms: _440  and  _441
REMARK  189  A    between atoms: _444  and  _446
REMARK  190  A    between atoms: _446  and  _447
REMARK  191  A    between atoms: _446  and  _449
REMARK  192  A    between atoms: _449  and  _450
REMARK  193  A    between atoms: _450  and  _451
REMARK  194  A    between atoms: _451  and  _452
REMARK  195  A    between atoms: _461  and  _463
REMARK  196  A    between atoms: _463  and  _464
REMARK  197  A    between atoms: _463  and  _466
REMARK  198  A    between atoms: _466  and  _467
REMARK  199  A    between atoms: _467  and  _468
REMARK  200  A    between atoms: _468  and  _469
REMARK  201  A    between atoms: _469  and  _470
REMARK  202  A    between atoms: _474  and  _476
REMARK  203  A    between atoms: _476  and  _477
REMARK  204  A    between atoms: _476  and  _479
REMARK  205  A    between atoms: _479  and  _480
REMARK  206  A    between atoms: _485  and  _486
REMARK  207  A    between atoms: _488  and  _490
REMARK  208  A    between atoms: _490  and  _491
REMARK  209  A    between atoms: _493  and  _495
REMARK  210  A    between atoms: _495  and  _496
REMARK  211  A    between atoms: _495  and  _498
REMARK  212  A    between atoms: _498  and  _499
REMARK  213  A    between atoms: _502  and  _504
REMARK  214  A    between atoms: _504  and  _505
REMARK  215  A    between atoms: _504  and  _507
REMARK  216  A    between atoms: _507  and  _508
REMARK  217  A    between atoms: _513  and  _514
REMARK  218  A    between atoms: _516  and  _518
REMARK  219  A    between atoms: _518  and  _519
REMARK  220  A    between atoms: _518  and  _521
REMARK  221  A    between atoms: _521  and  _522
REMARK                            x       y       z     vdW  Elec       q    Type
REMARK                         _______ _______ _______ _____ _____    ______ ____
ROOT
ATOM      1  O   HOH     1      18.021  63.647  11.081  0.00  0.00    +0.000 OA
ENDROOT
TORSDOF 0
REMARK  Name = ../refined-set-2016/2xbx/2xbx_pocket.pdb
REMARK  221 active torsions:
REMARK  status: ('A' for Active; 'I' for Inactive)
REMARK    1  A    between atoms: _1  and  _3
REMARK    2  A    between atoms: _3  and  _4
REMARK    3  A    between atoms: _3  and  _6
REMARK    4  A    between atoms: _9  and  _11
REMARK    5  A    between atoms: _11  and  _12
REMARK    6  A    between atoms: _11  and  _14
REMARK    7  A    between atoms: _14  and  _15
REMARK    8  A    between atoms: _20  and  _22
REMARK    9  A    between atoms: _22  and  _23
REMARK   10  A    between atoms: _22  and  _25
REMARK   11  A    between atoms: _25  and  _26
REMARK   12  A    between atoms: _26  and  _27
REMARK   13  A    between atoms: _32  and  _34
REMARK   14  A    between atoms: _34  and  _35
REMARK   15  A    between atoms: _34  and  _37
REMARK   16  A    between atoms: _37  and  _38
REMARK   17  A    between atoms: _44  and  _46
REMARK   18  A    between atoms: _46  and  _47
REMARK   19  A    between atoms: _46  and  _49
REMARK   20  A    between atoms: _49  and  _50
REMARK   21  A    between atoms: _53  and  _55
REMARK   22  A    between atoms: _55  and  _56
REMARK   23  A    between atoms: _55  and  _58
REMARK   24  A    between atoms: _58  and  _59
REMARK   25  A    between atoms: _59  and  _60
REMARK   26  A    between atoms: _60  and  _61
REMARK   27  A    between atoms: _61  and  _62
REMARK   28  A    between atoms: _66  and  _68
REMARK   29  A    between atoms: _68  and  _69
REMARK   30  A    between atoms: _68  and  _71
REMARK   31  A    between atoms: _71  and  _72
REMARK   32  A    between atoms: _72  and  _73
REMARK   33  A    between atoms: _76  and  _78
REMARK   34  A    between atoms: _78  and  _79
REMARK   35  A    between atoms: _78  and  _81
REMARK   36  A    between atoms: _81  and  _82
REMARK   37  A    between atoms: _85  and  _87
REMARK   38  A    between atoms: _87  and  _88
REMARK   39  A    between atoms: _87  and  _90
REMARK   40  A    between atoms: _90  and  _91
REMARK   41  A    between atoms: _96  and  _97
REMARK   42  A    between atoms: _99  and  _101
REMARK   43  A    between atoms: _101  and  _102
REMARK   44  A    between atoms: _101  and  _104
REMARK   45  A    between atoms: _104  and  _105
REMARK   46  A    between atoms: _108  and  _110
REMARK   47  A    between atoms: _110  and  _111
REMARK   48  A    between atoms: _110  and  _113
REMARK   49  A    between atoms: _113  and  _114
REMARK   50  A    between atoms: _117  and  _119
REMARK   51  A    between atoms: _119  and  _120
REMARK   52  A    between atoms: _119  and  _122
REMARK   53  A    between atoms: _125  and  _127
REMARK   54  A    between atoms: _127  and  _128
REMARK   55  A    between atoms: _127  and  _130
REMARK   56  A    between atoms: _130  and  _131
REMARK   57  A    between atoms: _131  and  _132
REMARK   58  A    between atoms: _132  and  _133
REMARK   59  A    between atoms: _142  and  _144
REMARK   60  A    between atoms: _144  and  _145
REMARK   61  A    between atoms: _144  and  _147
REMARK   62  A    between atoms: _147  and  _148
REMARK   63  A    between atoms: _153  and  _155
REMARK   64  A    between atoms: _155  and  _156
REMARK   65  A    between atoms: _155  and  _158
REMARK   66  A    between atoms: _158  and  _159
REMARK   67  A    between atoms: _159  and  _160
REMARK   68  A    between atoms: _163  and  _165
REMARK   69  A    between atoms: _165  and  _166
REMARK   70  A    between atoms: _165  and  _168
REMARK   71  A    between atoms: _168  and  _169
REMARK   72  A    between atoms: _169  and  _170
REMARK   73  A    between atoms: _170  and  _171
REMARK   74  A    between atoms: _171  and  _172
REMARK   75  A    between atoms: _176  and  _178
REMARK   76  A    between atoms: _178  and  _179
REMARK   77  A    between atoms: _181  and  _183
REMARK   78  A    between atoms: _183  and  _184
REMARK   79  A    between atoms: _183  and  _186
REMARK   80  A    between atoms: _189  and  _191
REMARK   81  A    between atoms: _191  and  _192
REMARK   82  A    between atoms: _191  and  _194
REMARK   83  A    between atoms: _194  and  _195
REMARK   84  A    between atoms: _197  and  _199
REMARK   85  A    between atoms: _199  and  _200
REMARK   86  A    between atoms: _199  and  _202
REMARK   87  A    between atoms: _202  and  _203
REMARK   88  A    between atoms: _205  and  _207
REMARK   89  A    between atoms: _207  and  _208
REMARK   90  A    between atoms: _207  and  _210
REMARK   91  A    between atoms: _210  and  _211
REMARK   92  A    between atoms: _217  and  _219
REMARK   93  A    between atoms: _219  and  _220
REMARK   94  A    between atoms: _219  and  _222
REMARK   95  A    between atoms: _222  and  _223
REMARK   96  A    between atoms: _226  and  _228
REMARK   97  A    between atoms: _228  and  _229
REMARK   98  A    between atoms: _228  and  _231
REMARK   99  A    between atoms: _231  and  _232
REMARK  100  A    between atoms: _235  and  _237
REMARK  101  A    between atoms: _237  and  _238
REMARK  102  A    between atoms: _237  and  _240
REMARK  103  A    between atoms: _240  and  _241
REMARK  104  A    between atoms: _244  and  _246
REMARK  105  A    between atoms: _246  and  _247
REMARK  106  A    between atoms: _246  and  _249
REMARK  107  A    between atoms: _249  and  _250
REMARK  108  A    between atoms: _250  and  _251
REMARK  109  A    between atoms: _253  and  _255
REMARK  110  A    between atoms: _255  and  _256
REMARK  111  A    between atoms: _255  and  _258
REMARK  112  A    between atoms: _258  and  _259
REMARK  113  A    between atoms: _265  and  _267
REMARK  114  A    between atoms: _267  and  _268
REMARK  115  A    between atoms: _267  and  _270
REMARK  116  A    between atoms: _272  and  _274
REMARK  117  A    between atoms: _274  and  _275
REMARK  118  A    between atoms: _278  and  _280
REMARK  119  A    between atoms: _280  and  _281
REMARK  120  A    between atoms: _283  and  _285
REMARK  121  A    between atoms: _285  and  _286
REMARK  122  A    between atoms: _285  and  _288
REMARK  123  A    between atoms: _288  and  _289
REMARK  124  A    between atoms: _289  and  _290
REMARK  125  A    between atoms: _293  and  _295
REMARK  126  A    between atoms: _295  and  _296
REMARK  127  A    between atoms: _295  and  _298
REMARK  128  A    between atoms: _298  and  _299
REMARK  129  A    between atoms: _302  and  _304
REMARK  130  A    between atoms: _304  and  _305
REMARK  131  A    between atoms: _308  and  _310
REMARK  132  A    between atoms: _310  and  _311
REMARK  133  A    between atoms: _310  and  _313
REMARK  134  A    between atoms: _313  and  _314
REMARK  135  A    between atoms: _314  and  _437
REMARK  136  A    between atoms: _315  and  _317
REMARK  137  A    between atoms: _317  and  _318
REMARK  138  A    between atoms: _317  and  _320
REMARK  139  A    between atoms: _320  and  _321
REMARK  140  A    between atoms: _321  and  _322
REMARK  141  A    between atoms: _327  and  _329
REMARK  142  A    between atoms: _329  and  _330
REMARK  143  A    between atoms: _332  and  _334
REMARK  144  A    between atoms: _334  and  _335
REMARK  145  A    between atoms: _334  and  _337
REMARK  146  A    between atoms: _337  and  _338
REMARK  147  A    between atoms: _341  and  _343
REMARK  148  A    between atoms: _343  and  _344
REMARK  149  A    between atoms: _343  and  _346
REMARK  150  A    between atoms: _346  and  _347
REMARK  151  A    between atoms: _349  and  _351
REMARK  152  A    between atoms: _351  and  _352
REMARK  153  A    between atoms: _354  and  _356
REMARK  154  A    between atoms: _356  and  _357
REMARK  155  A    between atoms: _359  and  _361
REMARK  156  A    between atoms: _361  and  _362
REMARK  157  A    between atoms: _361  and  _364
REMARK  158  A    between atoms: _364  and  _365
REMARK  159  A    between atoms: _370  and  _372
REMARK  160  A    between atoms: _372  and  _373
REMARK  161  A    between atoms: _372  and  _375
REMARK  162  A    between atoms: _375  and  _376
REMARK  163  A    between atoms: _379  and  _381
REMARK  164  A    between atoms: _381  and  _382
REMARK  165  A    between atoms: _381  and  _384
REMARK  166  A    between atoms: _387  and  _389
REMARK  167  A    between atoms: _389  and  _390
REMARK  168  A    between atoms: _389  and  _392
REMARK  169  A    between atoms: _392  and  _393
REMARK  170  A    between atoms: _395  and  _397
REMARK  171  A    between atoms: _397  and  _398
REMARK  172  A    between atoms: _397  and  _400
REMARK  173  A    between atoms: _400  and  _401
REMARK  174  A    between atoms: _411  and  _413
REMARK  175  A    between atoms: _413  and  _414
REMARK  176  A    between atoms: _416  and  _418
REMARK  177  A    between atoms: _418  and  _419
REMARK  178  A    between atoms: _418  and  _421
REMARK  179  A    between atoms: _421  and  _422
REMARK  180  A    between atoms: _422  and  _423
REMARK  181  A    between atoms: _426  and  _428
REMARK  182  A    between atoms: _428  and  _429
REMARK  183  A    between atoms: _431  and  _433
REMARK  184  A    between atoms: _433  and  _434
REMARK  185  A    between atoms: _433  and  _436
REMARK  186  A    between atoms: _436  and  _437
REMARK  187  A    between atoms: _438  and  _440
REMARK  188  A    between atoms: _440  and  _441
REMARK  189  A    between atoms: _444  and  _446
REMARK  190  A    between atoms: _446  and  _447
REMARK  191  A    between atoms: _446  and  _449
REMARK  192  A    between atoms: _449  and  _450
REMARK  193  A    between atoms: _450  and  _451
REMARK  194  A    between atoms: _451  and  _452
REMARK  195  A    between atoms: _461  and  _463
REMARK  196  A    between atoms: _463  and  _464
REMARK  197  A    between atoms: _463  and  _466
REMARK  198  A    between atoms: _466  and  _467
REMARK  199  A    between atoms: _467  and  _468
REMARK  200  A    between atoms: _468  and  _469
REMARK  201  A    between atoms: _469  and  _470
REMARK  202  A    between atoms: _474  and  _476
REMARK  203  A    between atoms: _476  and  _477
REMARK  204  A    between atoms: _476  and  _479
REMARK  205  A    between atoms: _479  and  _480
REMARK  206  A    between atoms: _485  and  _486
REMARK  207  A    between atoms: _488  and  _490
REMARK  208  A    between atoms: _490  and  _491
REMARK  209  A    between atoms: _493  and  _495
REMARK  210  A    between atoms: _495  and  _496
REMARK  211  A    between atoms: _495  and  _498
REMARK  212  A    between atoms: _498  and  _499
REMARK  213  A    between atoms: _502  and  _504
REMARK  214  A    between atoms: _504  and  _505
REMARK  215  A    between atoms: _504  and  _507
REMARK  216  A    between atoms: _507  and  _508
REMARK  217  A    between atoms: _513  and  _514
REMARK  218  A    between atoms: _516  and  _518
REMARK  219  A    between atoms: _518  and  _519
REMARK  220  A    between atoms: _518  and  _521
REMARK  221  A    between atoms: _521  and  _522
REMARK                            x       y       z     vdW  Elec       q    Type
REMARK                         _______ _______ _______ _____ _____    ______ ____
ROOT
ATOM      1  O   HOH     1       9.546  65.987  -1.108  0.00  0.00    +0.000 OA
ENDROOT
TORSDOF 0
REMARK  Name = ../refined-set-2016/2xbx/2xbx_pocket.pdb
REMARK  221 active torsions:
REMARK  status: ('A' for Active; 'I' for Inactive)
REMARK    1  A    between atoms: _1  and  _3
REMARK    2  A    between atoms: _3  and  _4
REMARK    3  A    between atoms: _3  and  _6
REMARK    4  A    between atoms: _9  and  _11
REMARK    5  A    between atoms: _11  and  _12
REMARK    6  A    between atoms: _11  and  _14
REMARK    7  A    between atoms: _14  and  _15
REMARK    8  A    between atoms: _20  and  _22
REMARK    9  A    between atoms: _22  and  _23
REMARK   10  A    between atoms: _22  and  _25
REMARK   11  A    between atoms: _25  and  _26
REMARK   12  A    between atoms: _26  and  _27
REMARK   13  A    between atoms: _32  and  _34
REMARK   14  A    between atoms: _34  and  _35
REMARK   15  A    between atoms: _34  and  _37
REMARK   16  A    between atoms: _37  and  _38
REMARK   17  A    between atoms: _44  and  _46
REMARK   18  A    between atoms: _46  and  _47
REMARK   19  A    between atoms: _46  and  _49
REMARK   20  A    between atoms: _49  and  _50
REMARK   21  A    between atoms: _53  and  _55
REMARK   22  A    between atoms: _55  and  _56
REMARK   23  A    between atoms: _55  and  _58
REMARK   24  A    between atoms: _58  and  _59
REMARK   25  A    between atoms: _59  and  _60
REMARK   26  A    between atoms: _60  and  _61
REMARK   27  A    between atoms: _61  and  _62
REMARK   28  A    between atoms: _66  and  _68
REMARK   29  A    between atoms: _68  and  _69
REMARK   30  A    between atoms: _68  and  _71
REMARK   31  A    between atoms: _71  and  _72
REMARK   32  A    between atoms: _72  and  _73
REMARK   33  A    between atoms: _76  and  _78
REMARK   34  A    between atoms: _78  and  _79
REMARK   35  A    between atoms: _78  and  _81
REMARK   36  A    between atoms: _81  and  _82
REMARK   37  A    between atoms: _85  and  _87
REMARK   38  A    between atoms: _87  and  _88
REMARK   39  A    between atoms: _87  and  _90
REMARK   40  A    between atoms: _90  and  _91
REMARK   41  A    between atoms: _96  and  _97
REMARK   42  A    between atoms: _99  and  _101
REMARK   43  A    between atoms: _101  and  _102
REMARK   44  A    between atoms: _101  and  _104
REMARK   45  A    between atoms: _104  and  _105
REMARK   46  A    between atoms: _108  and  _110
REMARK   47  A    between atoms: _110  and  _111
REMARK   48  A    between atoms: _110  and  _113
REMARK   49  A    between atoms: _113  and  _114
REMARK   50  A    between atoms: _117  and  _119
REMARK   51  A    between atoms: _119  and  _120
REMARK   52  A    between atoms: _119  and  _122
REMARK   53  A    between atoms: _125  and  _127
REMARK   54  A    between atoms: _127  and  _128
REMARK   55  A    between atoms: _127  and  _130
REMARK   56  A    between atoms: _130  and  _131
REMARK   57  A    between atoms: _131  and  _132
REMARK   58  A    between atoms: _132  and  _133
REMARK   59  A    between atoms: _142  and  _144
REMARK   60  A    between atoms: _144  and  _145
REMARK   61  A    between atoms: _144  and  _147
REMARK   62  A    between atoms: _147  and  _148
REMARK   63  A    between atoms: _153  and  _155
REMARK   64  A    between atoms: _155  and  _156
REMARK   65  A    between atoms: _155  and  _158
REMARK   66  A    between atoms: _158  and  _159
REMARK   67  A    between atoms: _159  and  _160
REMARK   68  A    between atoms: _163  and  _165
REMARK   69  A    between atoms: _165  and  _166
REMARK   70  A    between atoms: _165  and  _168
REMARK   71  A    between atoms: _168  and  _169
REMARK   72  A    between atoms: _169  and  _170
REMARK   73  A    between atoms: _170  and  _171
REMARK   74  A    between atoms: _171  and  _172
REMARK   75  A    between atoms: _176  and  _178
REMARK   76  A    between atoms: _178  and  _179
REMARK   77  A    between atoms: _181  and  _183
REMARK   78  A    between atoms: _183  and  _184
REMARK   79  A    between atoms: _183  and  _186
REMARK   80  A    between atoms: _189  and  _191
REMARK   81  A    between atoms: _191  and  _192
REMARK   82  A    between atoms: _191  and  _194
REMARK   83  A    between atoms: _194  and  _195
REMARK   84  A    between atoms: _197  and  _199
REMARK   85  A    between atoms: _199  and  _200
REMARK   86  A    between atoms: _199  and  _202
REMARK   87  A    between atoms: _202  and  _203
REMARK   88  A    between atoms: _205  and  _207
REMARK   89  A    between atoms: _207  and  _208
REMARK   90  A    between atoms: _207  and  _210
REMARK   91  A    between atoms: _210  and  _211
REMARK   92  A    between atoms: _217  and  _219
REMARK   93  A    between atoms: _219  and  _220
REMARK   94  A    between atoms: _219  and  _222
REMARK   95  A    between atoms: _222  and  _223
REMARK   96  A    between atoms: _226  and  _228
REMARK   97  A    between atoms: _228  and  _229
REMARK   98  A    between atoms: _228  and  _231
REMARK   99  A    between atoms: _231  and  _232
REMARK  100  A    between atoms: _235  and  _237
REMARK  101  A    between atoms: _237  and  _238
REMARK  102  A    between atoms: _237  and  _240
REMARK  103  A    between atoms: _240  and  _241
REMARK  104  A    between atoms: _244  and  _246
REMARK  105  A    between atoms: _246  and  _247
REMARK  106  A    between atoms: _246  and  _249
REMARK  107  A    between atoms: _249  and  _250
REMARK  108  A    between atoms: _250  and  _251
REMARK  109  A    between atoms: _253  and  _255
REMARK  110  A    between atoms: _255  and  _256
REMARK  111  A    between atoms: _255  and  _258
REMARK  112  A    between atoms: _258  and  _259
REMARK  113  A    between atoms: _265  and  _267
REMARK  114  A    between atoms: _267  and  _268
REMARK  115  A    between atoms: _267  and  _270
REMARK  116  A    between atoms: _272  and  _274
REMARK  117  A    between atoms: _274  and  _275
REMARK  118  A    between atoms: _278  and  _280
REMARK  119  A    between atoms: _280  and  _281
REMARK  120  A    between atoms: _283  and  _285
REMARK  121  A    between atoms: _285  and  _286
REMARK  122  A    between atoms: _285  and  _288
REMARK  123  A    between atoms: _288  and  _289
REMARK  124  A    between atoms: _289  and  _290
REMARK  125  A    between atoms: _293  and  _295
REMARK  126  A    between atoms: _295  and  _296
REMARK  127  A    between atoms: _295  and  _298
REMARK  128  A    between atoms: _298  and  _299
REMARK  129  A    between atoms: _302  and  _304
REMARK  130  A    between atoms: _304  and  _305
REMARK  131  A    between atoms: _308  and  _310
REMARK  132  A    between atoms: _310  and  _311
REMARK  133  A    between atoms: _310  and  _313
REMARK  134  A    between atoms: _313  and  _314
REMARK  135  A    between atoms: _314  and  _437
REMARK  136  A    between atoms: _315  and  _317
REMARK  137  A    between atoms: _317  and  _318
REMARK  138  A    between atoms: _317  and  _320
REMARK  139  A    between atoms: _320  and  _321
REMARK  140  A    between atoms: _321  and  _322
REMARK  141  A    between atoms: _327  and  _329
REMARK  142  A    between atoms: _329  and  _330
REMARK  143  A    between atoms: _332  and  _334
REMARK  144  A    between atoms: _334  and  _335
REMARK  145  A    between atoms: _334  and  _337
REMARK  146  A    between atoms: _337  and  _338
REMARK  147  A    between atoms: _341  and  _343
REMARK  148  A    between atoms: _343  and  _344
REMARK  149  A    between atoms: _343  and  _346
REMARK  150  A    between atoms: _346  and  _347
REMARK  151  A    between atoms: _349  and  _351
REMARK  152  A    between atoms: _351  and  _352
REMARK  153  A    between atoms: _354  and  _356
REMARK  154  A    between atoms: _356  and  _357
REMARK  155  A    between atoms: _359  and  _361
REMARK  156  A    between atoms: _361  and  _362
REMARK  157  A    between atoms: _361  and  _364
REMARK  158  A    between atoms: _364  and  _365
REMARK  159  A    between atoms: _370  and  _372
REMARK  160  A    between atoms: _372  and  _373
REMARK  161  A    between atoms: _372  and  _375
REMARK  162  A    between atoms: _375  and  _376
REMARK  163  A    between atoms: _379  and  _381
REMARK  164  A    between atoms: _381  and  _382
REMARK  165  A    between atoms: _381  and  _384
REMARK  166  A    between atoms: _387  and  _389
REMARK  167  A    between atoms: _389  and  _390
REMARK  168  A    between atoms: _389  and  _392
REMARK  169  A    between atoms: _392  and  _393
REMARK  170  A    between atoms: _395  and  _397
REMARK  171  A    between atoms: _397  and  _398
REMARK  172  A    between atoms: _397  and  _400
REMARK  173  A    between atoms: _400  and  _401
REMARK  174  A    between atoms: _411  and  _413
REMARK  175  A    between atoms: _413  and  _414
REMARK  176  A    between atoms: _416  and  _418
REMARK  177  A    between atoms: _418  and  _419
REMARK  178  A    between atoms: _418  and  _421
REMARK  179  A    between atoms: _421  and  _422
REMARK  180  A    between atoms: _422  and  _423
REMARK  181  A    between atoms: _426  and  _428
REMARK  182  A    between atoms: _428  and  _429
REMARK  183  A    between atoms: _431  and  _433
REMARK  184  A    between atoms: _433  and  _434
REMARK  185  A    between atoms: _433  and  _436
REMARK  186  A    between atoms: _436  and  _437
REMARK  187  A    between atoms: _438  and  _440
REMARK  188  A    between atoms: _440  and  _441
REMARK  189  A    between atoms: _444  and  _446
REMARK  190  A    between atoms: _446  and  _447
REMARK  191  A    between atoms: _446  and  _449
REMARK  192  A    between atoms: _449  and  _450
REMARK  193  A    between atoms: _450  and  _451
REMARK  194  A    between atoms: _451  and  _452
REMARK  195  A    between atoms: _461  and  _463
REMARK  196  A    between atoms: _463  and  _464
REMARK  197  A    between atoms: _463  and  _466
REMARK  198  A    between atoms: _466  and  _467
REMARK  199  A    between atoms: _467  and  _468
REMARK  200  A    between atoms: _468  and  _469
REMARK  201  A    between atoms: _469  and  _470
REMARK  202  A    between atoms: _474  and  _476
REMARK  203  A    between atoms: _476  and  _477
REMARK  204  A    between atoms: _476  and  _479
REMARK  205  A    between atoms: _479  and  _480
REMARK  206  A    between atoms: _485  and  _486
REMARK  207  A    between atoms: _488  and  _490
REMARK  208  A    between atoms: _490  and  _491
REMARK  209  A    between atoms: _493  and  _495
REMARK  210  A    between atoms: _495  and  _496
REMARK  211  A    between atoms: _495  and  _498
REMARK  212  A    between atoms: _498  and  _499
REMARK  213  A    between atoms: _502  and  _504
REMARK  214  A    between atoms: _504  and  _505
REMARK  215  A    between atoms: _504  and  _507
REMARK  216  A    between atoms: _507  and  _508
REMARK  217  A    between atoms: _513  and  _514
REMARK  218  A    between atoms: _516  and  _518
REMARK  219  A    between atoms: _518  and  _519
REMARK  220  A    between atoms: _518  and  _521
REMARK  221  A    between atoms: _521  and  _522
REMARK                            x       y       z     vdW  Elec       q    Type
REMARK                         _______ _______ _______ _____ _____    ______ ____
ROOT
ATOM      1  O   HOH     1       9.692  70.542  -3.069  0.00  0.00    +0.000 OA
ENDROOT
TORSDOF 0
REMARK  Name = ../refined-set-2016/2xbx/2xbx_pocket.pdb
REMARK  221 active torsions:
REMARK  status: ('A' for Active; 'I' for Inactive)
REMARK    1  A    between atoms: _1  and  _3
REMARK    2  A    between atoms: _3  and  _4
REMARK    3  A    between atoms: _3  and  _6
REMARK    4  A    between atoms: _9  and  _11
REMARK    5  A    between atoms: _11  and  _12
REMARK    6  A    between atoms: _11  and  _14
REMARK    7  A    between atoms: _14  and  _15
REMARK    8  A    between atoms: _20  and  _22
REMARK    9  A    between atoms: _22  and  _23
REMARK   10  A    between atoms: _22  and  _25
REMARK   11  A    between atoms: _25  and  _26
REMARK   12  A    between atoms: _26  and  _27
REMARK   13  A    between atoms: _32  and  _34
REMARK   14  A    between atoms: _34  and  _35
REMARK   15  A    between atoms: _34  and  _37
REMARK   16  A    between atoms: _37  and  _38
REMARK   17  A    between atoms: _44  and  _46
REMARK   18  A    between atoms: _46  and  _47
REMARK   19  A    between atoms: _46  and  _49
REMARK   20  A    between atoms: _49  and  _50
REMARK   21  A    between atoms: _53  and  _55
REMARK   22  A    between atoms: _55  and  _56
REMARK   23  A    between atoms: _55  and  _58
REMARK   24  A    between atoms: _58  and  _59
REMARK   25  A    between atoms: _59  and  _60
REMARK   26  A    between atoms: _60  and  _61
REMARK   27  A    between atoms: _61  and  _62
REMARK   28  A    between atoms: _66  and  _68
REMARK   29  A    between atoms: _68  and  _69
REMARK   30  A    between atoms: _68  and  _71
REMARK   31  A    between atoms: _71  and  _72
REMARK   32  A    between atoms: _72  and  _73
REMARK   33  A    between atoms: _76  and  _78
REMARK   34  A    between atoms: _78  and  _79
REMARK   35  A    between atoms: _78  and  _81
REMARK   36  A    between atoms: _81  and  _82
REMARK   37  A    between atoms: _85  and  _87
REMARK   38  A    between atoms: _87  and  _88
REMARK   39  A    between atoms: _87  and  _90
REMARK   40  A    between atoms: _90  and  _91
REMARK   41  A    between atoms: _96  and  _97
REMARK   42  A    between atoms: _99  and  _101
REMARK   43  A    between atoms: _101  and  _102
REMARK   44  A    between atoms: _101  and  _104
REMARK   45  A    between atoms: _104  and  _105
REMARK   46  A    between atoms: _108  and  _110
REMARK   47  A    between atoms: _110  and  _111
REMARK   48  A    between atoms: _110  and  _113
REMARK   49  A    between atoms: _113  and  _114
REMARK   50  A    between atoms: _117  and  _119
REMARK   51  A    between atoms: _119  and  _120
REMARK   52  A    between atoms: _119  and  _122
REMARK   53  A    between atoms: _125  and  _127
REMARK   54  A    between atoms: _127  and  _128
REMARK   55  A    between atoms: _127  and  _130
REMARK   56  A    between atoms: _130  and  _131
REMARK   57  A    between atoms: _131  and  _132
REMARK   58  A    between atoms: _132  and  _133
REMARK   59  A    between atoms: _142  and  _144
REMARK   60  A    between atoms: _144  and  _145
REMARK   61  A    between atoms: _144  and  _147
REMARK   62  A    between atoms: _147  and  _148
REMARK   63  A    between atoms: _153  and  _155
REMARK   64  A    between atoms: _155  and  _156
REMARK   65  A    between atoms: _155  and  _158
REMARK   66  A    between atoms: _158  and  _159
REMARK   67  A    between atoms: _159  and  _160
REMARK   68  A    between atoms: _163  and  _165
REMARK   69  A    between atoms: _165  and  _166
REMARK   70  A    between atoms: _165  and  _168
REMARK   71  A    between atoms: _168  and  _169
REMARK   72  A    between atoms: _169  and  _170
REMARK   73  A    between atoms: _170  and  _171
REMARK   74  A    between atoms: _171  and  _172
REMARK   75  A    between atoms: _176  and  _178
REMARK   76  A    between atoms: _178  and  _179
REMARK   77  A    between atoms: _181  and  _183
REMARK   78  A    between atoms: _183  and  _184
REMARK   79  A    between atoms: _183  and  _186
REMARK   80  A    between atoms: _189  and  _191
REMARK   81  A    between atoms: _191  and  _192
REMARK   82  A    between atoms: _191  and  _194
REMARK   83  A    between atoms: _194  and  _195
REMARK   84  A    between atoms: _197  and  _199
REMARK   85  A    between atoms: _199  and  _200
REMARK   86  A    between atoms: _199  and  _202
REMARK   87  A    between atoms: _202  and  _203
REMARK   88  A    between atoms: _205  and  _207
REMARK   89  A    between atoms: _207  and  _208
REMARK   90  A    between atoms: _207  and  _210
REMARK   91  A    between atoms: _210  and  _211
REMARK   92  A    between atoms: _217  and  _219
REMARK   93  A    between atoms: _219  and  _220
REMARK   94  A    between atoms: _219  and  _222
REMARK   95  A    between atoms: _222  and  _223
REMARK   96  A    between atoms: _226  and  _228
REMARK   97  A    between atoms: _228  and  _229
REMARK   98  A    between atoms: _228  and  _231
REMARK   99  A    between atoms: _231  and  _232
REMARK  100  A    between atoms: _235  and  _237
REMARK  101  A    between atoms: _237  and  _238
REMARK  102  A    between atoms: _237  and  _240
REMARK  103  A    between atoms: _240  and  _241
REMARK  104  A    between atoms: _244  and  _246
REMARK  105  A    between atoms: _246  and  _247
REMARK  106  A    between atoms: _246  and  _249
REMARK  107  A    between atoms: _249  and  _250
REMARK  108  A    between atoms: _250  and  _251
REMARK  109  A    between atoms: _253  and  _255
REMARK  110  A    between atoms: _255  and  _256
REMARK  111  A    between atoms: _255  and  _258
REMARK  112  A    between atoms: _258  and  _259
REMARK  113  A    between atoms: _265  and  _267
REMARK  114  A    between atoms: _267  and  _268
REMARK  115  A    between atoms: _267  and  _270
REMARK  116  A    between atoms: _272  and  _274
REMARK  117  A    between atoms: _274  and  _275
REMARK  118  A    between atoms: _278  and  _280
REMARK  119  A    between atoms: _280  and  _281
REMARK  120  A    between atoms: _283  and  _285
REMARK  121  A    between atoms: _285  and  _286
REMARK  122  A    between atoms: _285  and  _288
REMARK  123  A    between atoms: _288  and  _289
REMARK  124  A    between atoms: _289  and  _290
REMARK  125  A    between atoms: _293  and  _295
REMARK  126  A    between atoms: _295  and  _296
REMARK  127  A    between atoms: _295  and  _298
REMARK  128  A    between atoms: _298  and  _299
REMARK  129  A    between atoms: _302  and  _304
REMARK  130  A    between atoms: _304  and  _305
REMARK  131  A    between atoms: _308  and  _310
REMARK  132  A    between atoms: _310  and  _311
REMARK  133  A    between atoms: _310  and  _313
REMARK  134  A    between atoms: _313  and  _314
REMARK  135  A    between atoms: _314  and  _437
REMARK  136  A    between atoms: _315  and  _317
REMARK  137  A    between atoms: _317  and  _318
REMARK  138  A    between atoms: _317  and  _320
REMARK  139  A    between atoms: _320  and  _321
REMARK  140  A    between atoms: _321  and  _322
REMARK  141  A    between atoms: _327  and  _329
REMARK  142  A    between atoms: _329  and  _330
REMARK  143  A    between atoms: _332  and  _334
REMARK  144  A    between atoms: _334  and  _335
REMARK  145  A    between atoms: _334  and  _337
REMARK  146  A    between atoms: _337  and  _338
REMARK  147  A    between atoms: _341  and  _343
REMARK  148  A    between atoms: _343  and  _344
REMARK  149  A    between atoms: _343  and  _346
REMARK  150  A    between atoms: _346  and  _347
REMARK  151  A    between atoms: _349  and  _351
REMARK  152  A    between atoms: _351  and  _352
REMARK  153  A    between atoms: _354  and  _356
REMARK  154  A    between atoms: _356  and  _357
REMARK  155  A    between atoms: _359  and  _361
REMARK  156  A    between atoms: _361  and  _362
REMARK  157  A    between atoms: _361  and  _364
REMARK  158  A    between atoms: _364  and  _365
REMARK  159  A    between atoms: _370  and  _372
REMARK  160  A    between atoms: _372  and  _373
REMARK  161  A    between atoms: _372  and  _375
REMARK  162  A    between atoms: _375  and  _376
REMARK  163  A    between atoms: _379  and  _381
REMARK  164  A    between atoms: _381  and  _382
REMARK  165  A    between atoms: _381  and  _384
REMARK  166  A    between atoms: _387  and  _389
REMARK  167  A    between atoms: _389  and  _390
REMARK  168  A    between atoms: _389  and  _392
REMARK  169  A    between atoms: _392  and  _393
REMARK  170  A    between atoms: _395  and  _397
REMARK  171  A    between atoms: _397  and  _398
REMARK  172  A    between atoms: _397  and  _400
REMARK  173  A    between atoms: _400  and  _401
REMARK  174  A    between atoms: _411  and  _413
REMARK  175  A    between atoms: _413  and  _414
REMARK  176  A    between atoms: _416  and  _418
REMARK  177  A    between atoms: _418  and  _419
REMARK  178  A    between atoms: _418  and  _421
REMARK  179  A    between atoms: _421  and  _422
REMARK  180  A    between atoms: _422  and  _423
REMARK  181  A    between atoms: _426  and  _428
REMARK  182  A    between atoms: _428  and  _429
REMARK  183  A    between atoms: _431  and  _433
REMARK  184  A    between atoms: _433  and  _434
REMARK  185  A    between atoms: _433  and  _436
REMARK  186  A    between atoms: _436  and  _437
REMARK  187  A    between atoms: _438  and  _440
REMARK  188  A    between atoms: _440  and  _441
REMARK  189  A    between atoms: _444  and  _446
REMARK  190  A    between atoms: _446  and  _447
REMARK  191  A    between atoms: _446  and  _449
REMARK  192  A    between atoms: _449  and  _450
REMARK  193  A    between atoms: _450  and  _451
REMARK  194  A    between atoms: _451  and  _452
REMARK  195  A    between atoms: _461  and  _463
REMARK  196  A    between atoms: _463  and  _464
REMARK  197  A    between atoms: _463  and  _466
REMARK  198  A    between atoms: _466  and  _467
REMARK  199  A    between atoms: _467  and  _468
REMARK  200  A    between atoms: _468  and  _469
REMARK  201  A    between atoms: _469  and  _470
REMARK  202  A    between atoms: _474  and  _476
REMARK  203  A    between atoms: _476  and  _477
REMARK  204  A    between atoms: _476  and  _479
REMARK  205  A    between atoms: _479  and  _480
REMARK  206  A    between atoms: _485  and  _486
REMARK  207  A    between atoms: _488  and  _490
REMARK  208  A    between atoms: _490  and  _491
REMARK  209  A    between atoms: _493  and  _495
REMARK  210  A    between atoms: _495  and  _496
REMARK  211  A    between atoms: _495  and  _498
REMARK  212  A    between atoms: _498  and  _499
REMARK  213  A    between atoms: _502  and  _504
REMARK  214  A    between atoms: _504  and  _505
REMARK  215  A    between atoms: _504  and  _507
REMARK  216  A    between atoms: _507  and  _508
REMARK  217  A    between atoms: _513  and  _514
REMARK  218  A    between atoms: _516  and  _518
REMARK  219  A    between atoms: _518  and  _519
REMARK  220  A    between atoms: _518  and  _521
REMARK  221  A    between atoms: _521  and  _522
REMARK                            x       y       z     vdW  Elec       q    Type
REMARK                         _______ _______ _______ _____ _____    ______ ____
ROOT
ATOM      1  O   HOH     1      15.776  66.666  -1.753  0.00  0.00    +0.000 OA
ENDROOT
TORSDOF 0
REMARK  Name = ../refined-set-2016/2xbx/2xbx_pocket.pdb
REMARK  221 active torsions:
REMARK  status: ('A' for Active; 'I' for Inactive)
REMARK    1  A    between atoms: _1  and  _3
REMARK    2  A    between atoms: _3  and  _4
REMARK    3  A    between atoms: _3  and  _6
REMARK    4  A    between atoms: _9  and  _11
REMARK    5  A    between atoms: _11  and  _12
REMARK    6  A    between atoms: _11  and  _14
REMARK    7  A    between atoms: _14  and  _15
REMARK    8  A    between atoms: _20  and  _22
REMARK    9  A    between atoms: _22  and  _23
REMARK   10  A    between atoms: _22  and  _25
REMARK   11  A    between atoms: _25  and  _26
REMARK   12  A    between atoms: _26  and  _27
REMARK   13  A    between atoms: _32  and  _34
REMARK   14  A    between atoms: _34  and  _35
REMARK   15  A    between atoms: _34  and  _37
REMARK   16  A    between atoms: _37  and  _38
REMARK   17  A    between atoms: _44  and  _46
REMARK   18  A    between atoms: _46  and  _47
REMARK   19  A    between atoms: _46  and  _49
REMARK   20  A    between atoms: _49  and  _50
REMARK   21  A    between atoms: _53  and  _55
REMARK   22  A    between atoms: _55  and  _56
REMARK   23  A    between atoms: _55  and  _58
REMARK   24  A    between atoms: _58  and  _59
REMARK   25  A    between atoms: _59  and  _60
REMARK   26  A    between atoms: _60  and  _61
REMARK   27  A    between atoms: _61  and  _62
REMARK   28  A    between atoms: _66  and  _68
REMARK   29  A    between atoms: _68  and  _69
REMARK   30  A    between atoms: _68  and  _71
REMARK   31  A    between atoms: _71  and  _72
REMARK   32  A    between atoms: _72  and  _73
REMARK   33  A    between atoms: _76  and  _78
REMARK   34  A    between atoms: _78  and  _79
REMARK   35  A    between atoms: _78  and  _81
REMARK   36  A    between atoms: _81  and  _82
REMARK   37  A    between atoms: _85  and  _87
REMARK   38  A    between atoms: _87  and  _88
REMARK   39  A    between atoms: _87  and  _90
REMARK   40  A    between atoms: _90  and  _91
REMARK   41  A    between atoms: _96  and  _97
REMARK   42  A    between atoms: _99  and  _101
REMARK   43  A    between atoms: _101  and  _102
REMARK   44  A    between atoms: _101  and  _104
REMARK   45  A    between atoms: _104  and  _105
REMARK   46  A    between atoms: _108  and  _110
REMARK   47  A    between atoms: _110  and  _111
REMARK   48  A    between atoms: _110  and  _113
REMARK   49  A    between atoms: _113  and  _114
REMARK   50  A    between atoms: _117  and  _119
REMARK   51  A    between atoms: _119  and  _120
REMARK   52  A    between atoms: _119  and  _122
REMARK   53  A    between atoms: _125  and  _127
REMARK   54  A    between atoms: _127  and  _128
REMARK   55  A    between atoms: _127  and  _130
REMARK   56  A    between atoms: _130  and  _131
REMARK   57  A    between atoms: _131  and  _132
REMARK   58  A    between atoms: _132  and  _133
REMARK   59  A    between atoms: _142  and  _144
REMARK   60  A    between atoms: _144  and  _145
REMARK   61  A    between atoms: _144  and  _147
REMARK   62  A    between atoms: _147  and  _148
REMARK   63  A    between atoms: _153  and  _155
REMARK   64  A    between atoms: _155  and  _156
REMARK   65  A    between atoms: _155  and  _158
REMARK   66  A    between atoms: _158  and  _159
REMARK   67  A    between atoms: _159  and  _160
REMARK   68  A    between atoms: _163  and  _165
REMARK   69  A    between atoms: _165  and  _166
REMARK   70  A    between atoms: _165  and  _168
REMARK   71  A    between atoms: _168  and  _169
REMARK   72  A    between atoms: _169  and  _170
REMARK   73  A    between atoms: _170  and  _171
REMARK   74  A    between atoms: _171  and  _172
REMARK   75  A    between atoms: _176  and  _178
REMARK   76  A    between atoms: _178  and  _179
REMARK   77  A    between atoms: _181  and  _183
REMARK   78  A    between atoms: _183  and  _184
REMARK   79  A    between atoms: _183  and  _186
REMARK   80  A    between atoms: _189  and  _191
REMARK   81  A    between atoms: _191  and  _192
REMARK   82  A    between atoms: _191  and  _194
REMARK   83  A    between atoms: _194  and  _195
REMARK   84  A    between atoms: _197  and  _199
REMARK   85  A    between atoms: _199  and  _200
REMARK   86  A    between atoms: _199  and  _202
REMARK   87  A    between atoms: _202  and  _203
REMARK   88  A    between atoms: _205  and  _207
REMARK   89  A    between atoms: _207  and  _208
REMARK   90  A    between atoms: _207  and  _210
REMARK   91  A    between atoms: _210  and  _211
REMARK   92  A    between atoms: _217  and  _219
REMARK   93  A    between atoms: _219  and  _220
REMARK   94  A    between atoms: _219  and  _222
REMARK   95  A    between atoms: _222  and  _223
REMARK   96  A    between atoms: _226  and  _228
REMARK   97  A    between atoms: _228  and  _229
REMARK   98  A    between atoms: _228  and  _231
REMARK   99  A    between atoms: _231  and  _232
REMARK  100  A    between atoms: _235  and  _237
REMARK  101  A    between atoms: _237  and  _238
REMARK  102  A    between atoms: _237  and  _240
REMARK  103  A    between atoms: _240  and  _241
REMARK  104  A    between atoms: _244  and  _246
REMARK  105  A    between atoms: _246  and  _247
REMARK  106  A    between atoms: _246  and  _249
REMARK  107  A    between atoms: _249  and  _250
REMARK  108  A    between atoms: _250  and  _251
REMARK  109  A    between atoms: _253  and  _255
REMARK  110  A    between atoms: _255  and  _256
REMARK  111  A    between atoms: _255  and  _258
REMARK  112  A    between atoms: _258  and  _259
REMARK  113  A    between atoms: _265  and  _267
REMARK  114  A    between atoms: _267  and  _268
REMARK  115  A    between atoms: _267  and  _270
REMARK  116  A    between atoms: _272  and  _274
REMARK  117  A    between atoms: _274  and  _275
REMARK  118  A    between atoms: _278  and  _280
REMARK  119  A    between atoms: _280  and  _281
REMARK  120  A    between atoms: _283  and  _285
REMARK  121  A    between atoms: _285  and  _286
REMARK  122  A    between atoms: _285  and  _288
REMARK  123  A    between atoms: _288  and  _289
REMARK  124  A    between atoms: _289  and  _290
REMARK  125  A    between atoms: _293  and  _295
REMARK  126  A    between atoms: _295  and  _296
REMARK  127  A    between atoms: _295  and  _298
REMARK  128  A    between atoms: _298  and  _299
REMARK  129  A    between atoms: _302  and  _304
REMARK  130  A    between atoms: _304  and  _305
REMARK  131  A    between atoms: _308  and  _310
REMARK  132  A    between atoms: _310  and  _311
REMARK  133  A    between atoms: _310  and  _313
REMARK  134  A    between atoms: _313  and  _314
REMARK  135  A    between atoms: _314  and  _437
REMARK  136  A    between atoms: _315  and  _317
REMARK  137  A    between atoms: _317  and  _318
REMARK  138  A    between atoms: _317  and  _320
REMARK  139  A    between atoms: _320  and  _321
REMARK  140  A    between atoms: _321  and  _322
REMARK  141  A    between atoms: _327  and  _329
REMARK  142  A    between atoms: _329  and  _330
REMARK  143  A    between atoms: _332  and  _334
REMARK  144  A    between atoms: _334  and  _335
REMARK  145  A    between atoms: _334  and  _337
REMARK  146  A    between atoms: _337  and  _338
REMARK  147  A    between atoms: _341  and  _343
REMARK  148  A    between atoms: _343  and  _344
REMARK  149  A    between atoms: _343  and  _346
REMARK  150  A    between atoms: _346  and  _347
REMARK  151  A    between atoms: _349  and  _351
REMARK  152  A    between atoms: _351  and  _352
REMARK  153  A    between atoms: _354  and  _356
REMARK  154  A    between atoms: _356  and  _357
REMARK  155  A    between atoms: _359  and  _361
REMARK  156  A    between atoms: _361  and  _362
REMARK  157  A    between atoms: _361  and  _364
REMARK  158  A    between atoms: _364  and  _365
REMARK  159  A    between atoms: _370  and  _372
REMARK  160  A    between atoms: _372  and  _373
REMARK  161  A    between atoms: _372  and  _375
REMARK  162  A    between atoms: _375  and  _376
REMARK  163  A    between atoms: _379  and  _381
REMARK  164  A    between atoms: _381  and  _382
REMARK  165  A    between atoms: _381  and  _384
REMARK  166  A    between atoms: _387  and  _389
REMARK  167  A    between atoms: _389  and  _390
REMARK  168  A    between atoms: _389  and  _392
REMARK  169  A    between atoms: _392  and  _393
REMARK  170  A    between atoms: _395  and  _397
REMARK  171  A    between atoms: _397  and  _398
REMARK  172  A    between atoms: _397  and  _400
REMARK  173  A    between atoms: _400  and  _401
REMARK  174  A    between atoms: _411  and  _413
REMARK  175  A    between atoms: _413  and  _414
REMARK  176  A    between atoms: _416  and  _418
REMARK  177  A    between atoms: _418  and  _419
REMARK  178  A    between atoms: _418  and  _421
REMARK  179  A    between atoms: _421  and  _422
REMARK  180  A    between atoms: _422  and  _423
REMARK  181  A    between atoms: _426  and  _428
REMARK  182  A    between atoms: _428  and  _429
REMARK  183  A    between atoms: _431  and  _433
REMARK  184  A    between atoms: _433  and  _434
REMARK  185  A    between atoms: _433  and  _436
REMARK  186  A    between atoms: _436  and  _437
REMARK  187  A    between atoms: _438  and  _440
REMARK  188  A    between atoms: _440  and  _441
REMARK  189  A    between atoms: _444  and  _446
REMARK  190  A    between atoms: _446  and  _447
REMARK  191  A    between atoms: _446  and  _449
REMARK  192  A    between atoms: _449  and  _450
REMARK  193  A    between atoms: _450  and  _451
REMARK  194  A    between atoms: _451  and  _452
REMARK  195  A    between atoms: _461  and  _463
REMARK  196  A    between atoms: _463  and  _464
REMARK  197  A    between atoms: _463  and  _466
REMARK  198  A    between atoms: _466  and  _467
REMARK  199  A    between atoms: _467  and  _468
REMARK  200  A    between atoms: _468  and  _469
REMARK  201  A    between atoms: _469  and  _470
REMARK  202  A    between atoms: _474  and  _476
REMARK  203  A    between atoms: _476  and  _477
REMARK  204  A    between atoms: _476  and  _479
REMARK  205  A    between atoms: _479  and  _480
REMARK  206  A    between atoms: _485  and  _486
REMARK  207  A    between atoms: _488  and  _490
REMARK  208  A    between atoms: _490  and  _491
REMARK  209  A    between atoms: _493  and  _495
REMARK  210  A    between atoms: _495  and  _496
REMARK  211  A    between atoms: _495  and  _498
REMARK  212  A    between atoms: _498  and  _499
REMARK  213  A    between atoms: _502  and  _504
REMARK  214  A    between atoms: _504  and  _505
REMARK  215  A    between atoms: _504  and  _507
REMARK  216  A    between atoms: _507  and  _508
REMARK  217  A    between atoms: _513  and  _514
REMARK  218  A    between atoms: _516  and  _518
REMARK  219  A    between atoms: _518  and  _519
REMARK  220  A    between atoms: _518  and  _521
REMARK  221  A    between atoms: _521  and  _522
REMARK                            x       y       z     vdW  Elec       q    Type
REMARK                         _______ _______ _______ _____ _____    ______ ____
ROOT
ATOM      1  O   HOH     1      12.653  63.181   1.094  0.00  0.00    +0.000 OA
ENDROOT
TORSDOF 0
REMARK  Name = ../refined-set-2016/2xbx/2xbx_pocket.pdb
REMARK  221 active torsions:
REMARK  status: ('A' for Active; 'I' for Inactive)
REMARK    1  A    between atoms: _1  and  _3
REMARK    2  A    between atoms: _3  and  _4
REMARK    3  A    between atoms: _3  and  _6
REMARK    4  A    between atoms: _9  and  _11
REMARK    5  A    between atoms: _11  and  _12
REMARK    6  A    between atoms: _11  and  _14
REMARK    7  A    between atoms: _14  and  _15
REMARK    8  A    between atoms: _20  and  _22
REMARK    9  A    between atoms: _22  and  _23
REMARK   10  A    between atoms: _22  and  _25
REMARK   11  A    between atoms: _25  and  _26
REMARK   12  A    between atoms: _26  and  _27
REMARK   13  A    between atoms: _32  and  _34
REMARK   14  A    between atoms: _34  and  _35
REMARK   15  A    between atoms: _34  and  _37
REMARK   16  A    between atoms: _37  and  _38
REMARK   17  A    between atoms: _44  and  _46
REMARK   18  A    between atoms: _46  and  _47
REMARK   19  A    between atoms: _46  and  _49
REMARK   20  A    between atoms: _49  and  _50
REMARK   21  A    between atoms: _53  and  _55
REMARK   22  A    between atoms: _55  and  _56
REMARK   23  A    between atoms: _55  and  _58
REMARK   24  A    between atoms: _58  and  _59
REMARK   25  A    between atoms: _59  and  _60
REMARK   26  A    between atoms: _60  and  _61
REMARK   27  A    between atoms: _61  and  _62
REMARK   28  A    between atoms: _66  and  _68
REMARK   29  A    between atoms: _68  and  _69
REMARK   30  A    between atoms: _68  and  _71
REMARK   31  A    between atoms: _71  and  _72
REMARK   32  A    between atoms: _72  and  _73
REMARK   33  A    between atoms: _76  and  _78
REMARK   34  A    between atoms: _78  and  _79
REMARK   35  A    between atoms: _78  and  _81
REMARK   36  A    between atoms: _81  and  _82
REMARK   37  A    between atoms: _85  and  _87
REMARK   38  A    between atoms: _87  and  _88
REMARK   39  A    between atoms: _87  and  _90
REMARK   40  A    between atoms: _90  and  _91
REMARK   41  A    between atoms: _96  and  _97
REMARK   42  A    between atoms: _99  and  _101
REMARK   43  A    between atoms: _101  and  _102
REMARK   44  A    between atoms: _101  and  _104
REMARK   45  A    between atoms: _104  and  _105
REMARK   46  A    between atoms: _108  and  _110
REMARK   47  A    between atoms: _110  and  _111
REMARK   48  A    between atoms: _110  and  _113
REMARK   49  A    between atoms: _113  and  _114
REMARK   50  A    between atoms: _117  and  _119
REMARK   51  A    between atoms: _119  and  _120
REMARK   52  A    between atoms: _119  and  _122
REMARK   53  A    between atoms: _125  and  _127
REMARK   54  A    between atoms: _127  and  _128
REMARK   55  A    between atoms: _127  and  _130
REMARK   56  A    between atoms: _130  and  _131
REMARK   57  A    between atoms: _131  and  _132
REMARK   58  A    between atoms: _132  and  _133
REMARK   59  A    between atoms: _142  and  _144
REMARK   60  A    between atoms: _144  and  _145
REMARK   61  A    between atoms: _144  and  _147
REMARK   62  A    between atoms: _147  and  _148
REMARK   63  A    between atoms: _153  and  _155
REMARK   64  A    between atoms: _155  and  _156
REMARK   65  A    between atoms: _155  and  _158
REMARK   66  A    between atoms: _158  and  _159
REMARK   67  A    between atoms: _159  and  _160
REMARK   68  A    between atoms: _163  and  _165
REMARK   69  A    between atoms: _165  and  _166
REMARK   70  A    between atoms: _165  and  _168
REMARK   71  A    between atoms: _168  and  _169
REMARK   72  A    between atoms: _169  and  _170
REMARK   73  A    between atoms: _170  and  _171
REMARK   74  A    between atoms: _171  and  _172
REMARK   75  A    between atoms: _176  and  _178
REMARK   76  A    between atoms: _178  and  _179
REMARK   77  A    between atoms: _181  and  _183
REMARK   78  A    between atoms: _183  and  _184
REMARK   79  A    between atoms: _183  and  _186
REMARK   80  A    between atoms: _189  and  _191
REMARK   81  A    between atoms: _191  and  _192
REMARK   82  A    between atoms: _191  and  _194
REMARK   83  A    between atoms: _194  and  _195
REMARK   84  A    between atoms: _197  and  _199
REMARK   85  A    between atoms: _199  and  _200
REMARK   86  A    between atoms: _199  and  _202
REMARK   87  A    between atoms: _202  and  _203
REMARK   88  A    between atoms: _205  and  _207
REMARK   89  A    between atoms: _207  and  _208
REMARK   90  A    between atoms: _207  and  _210
REMARK   91  A    between atoms: _210  and  _211
REMARK   92  A    between atoms: _217  and  _219
REMARK   93  A    between atoms: _219  and  _220
REMARK   94  A    between atoms: _219  and  _222
REMARK   95  A    between atoms: _222  and  _223
REMARK   96  A    between atoms: _226  and  _228
REMARK   97  A    between atoms: _228  and  _229
REMARK   98  A    between atoms: _228  and  _231
REMARK   99  A    between atoms: _231  and  _232
REMARK  100  A    between atoms: _235  and  _237
REMARK  101  A    between atoms: _237  and  _238
REMARK  102  A    between atoms: _237  and  _240
REMARK  103  A    between atoms: _240  and  _241
REMARK  104  A    between atoms: _244  and  _246
REMARK  105  A    between atoms: _246  and  _247
REMARK  106  A    between atoms: _246  and  _249
REMARK  107  A    between atoms: _249  and  _250
REMARK  108  A    between atoms: _250  and  _251
REMARK  109  A    between atoms: _253  and  _255
REMARK  110  A    between atoms: _255  and  _256
REMARK  111  A    between atoms: _255  and  _258
REMARK  112  A    between atoms: _258  and  _259
REMARK  113  A    between atoms: _265  and  _267
REMARK  114  A    between atoms: _267  and  _268
REMARK  115  A    between atoms: _267  and  _270
REMARK  116  A    between atoms: _272  and  _274
REMARK  117  A    between atoms: _274  and  _275
REMARK  118  A    between atoms: _278  and  _280
REMARK  119  A    between atoms: _280  and  _281
REMARK  120  A    between atoms: _283  and  _285
REMARK  121  A    between atoms: _285  and  _286
REMARK  122  A    between atoms: _285  and  _288
REMARK  123  A    between atoms: _288  and  _289
REMARK  124  A    between atoms: _289  and  _290
REMARK  125  A    between atoms: _293  and  _295
REMARK  126  A    between atoms: _295  and  _296
REMARK  127  A    between atoms: _295  and  _298
REMARK  128  A    between atoms: _298  and  _299
REMARK  129  A    between atoms: _302  and  _304
REMARK  130  A    between atoms: _304  and  _305
REMARK  131  A    between atoms: _308  and  _310
REMARK  132  A    between atoms: _310  and  _311
REMARK  133  A    between atoms: _310  and  _313
REMARK  134  A    between atoms: _313  and  _314
REMARK  135  A    between atoms: _314  and  _437
REMARK  136  A    between atoms: _315  and  _317
REMARK  137  A    between atoms: _317  and  _318
REMARK  138  A    between atoms: _317  and  _320
REMARK  139  A    between atoms: _320  and  _321
REMARK  140  A    between atoms: _321  and  _322
REMARK  141  A    between atoms: _327  and  _329
REMARK  142  A    between atoms: _329  and  _330
REMARK  143  A    between atoms: _332  and  _334
REMARK  144  A    between atoms: _334  and  _335
REMARK  145  A    between atoms: _334  and  _337
REMARK  146  A    between atoms: _337  and  _338
REMARK  147  A    between atoms: _341  and  _343
REMARK  148  A    between atoms: _343  and  _344
REMARK  149  A    between atoms: _343  and  _346
REMARK  150  A    between atoms: _346  and  _347
REMARK  151  A    between atoms: _349  and  _351
REMARK  152  A    between atoms: _351  and  _352
REMARK  153  A    between atoms: _354  and  _356
REMARK  154  A    between atoms: _356  and  _357
REMARK  155  A    between atoms: _359  and  _361
REMARK  156  A    between atoms: _361  and  _362
REMARK  157  A    between atoms: _361  and  _364
REMARK  158  A    between atoms: _364  and  _365
REMARK  159  A    between atoms: _370  and  _372
REMARK  160  A    between atoms: _372  and  _373
REMARK  161  A    between atoms: _372  and  _375
REMARK  162  A    between atoms: _375  and  _376
REMARK  163  A    between atoms: _379  and  _381
REMARK  164  A    between atoms: _381  and  _382
REMARK  165  A    between atoms: _381  and  _384
REMARK  166  A    between atoms: _387  and  _389
REMARK  167  A    between atoms: _389  and  _390
REMARK  168  A    between atoms: _389  and  _392
REMARK  169  A    between atoms: _392  and  _393
REMARK  170  A    between atoms: _395  and  _397
REMARK  171  A    between atoms: _397  and  _398
REMARK  172  A    between atoms: _397  and  _400
REMARK  173  A    between atoms: _400  and  _401
REMARK  174  A    between atoms: _411  and  _413
REMARK  175  A    between atoms: _413  and  _414
REMARK  176  A    between atoms: _416  and  _418
REMARK  177  A    between atoms: _418  and  _419
REMARK  178  A    between atoms: _418  and  _421
REMARK  179  A    between atoms: _421  and  _422
REMARK  180  A    between atoms: _422  and  _423
REMARK  181  A    between atoms: _426  and  _428
REMARK  182  A    between atoms: _428  and  _429
REMARK  183  A    between atoms: _431  and  _433
REMARK  184  A    between atoms: _433  and  _434
REMARK  185  A    between atoms: _433  and  _436
REMARK  186  A    between atoms: _436  and  _437
REMARK  187  A    between atoms: _438  and  _440
REMARK  188  A    between atoms: _440  and  _441
REMARK  189  A    between atoms: _444  and  _446
REMARK  190  A    between atoms: _446  and  _447
REMARK  191  A    between atoms: _446  and  _449
REMARK  192  A    between atoms: _449  and  _450
REMARK  193  A    between atoms: _450  and  _451
REMARK  194  A    between atoms: _451  and  _452
REMARK  195  A    between atoms: _461  and  _463
REMARK  196  A    between atoms: _463  and  _464
REMARK  197  A    between atoms: _463  and  _466
REMARK  198  A    between atoms: _466  and  _467
REMARK  199  A    between atoms: _467  and  _468
REMARK  200  A    between atoms: _468  and  _469
REMARK  201  A    between atoms: _469  and  _470
REMARK  202  A    between atoms: _474  and  _476
REMARK  203  A    between atoms: _476  and  _477
REMARK  204  A    between atoms: _476  and  _479
REMARK  205  A    between atoms: _479  and  _480
REMARK  206  A    between atoms: _485  and  _486
REMARK  207  A    between atoms: _488  and  _490
REMARK  208  A    between atoms: _490  and  _491
REMARK  209  A    between atoms: _493  and  _495
REMARK  210  A    between atoms: _495  and  _496
REMARK  211  A    between atoms: _495  and  _498
REMARK  212  A    between atoms: _498  and  _499
REMARK  213  A    between atoms: _502  and  _504
REMARK  214  A    between atoms: _504  and  _505
REMARK  215  A    between atoms: _504  and  _507
REMARK  216  A    between atoms: _507  and  _508
REMARK  217  A    between atoms: _513  and  _514
REMARK  218  A    between atoms: _516  and  _518
REMARK  219  A    between atoms: _518  and  _519
REMARK  220  A    between atoms: _518  and  _521
REMARK  221  A    between atoms: _521  and  _522
REMARK                            x       y       z     vdW  Elec       q    Type
REMARK                         _______ _______ _______ _____ _____    ______ ____
ROOT
ATOM      1  O   HOH     1      10.423  66.822  11.036  0.00  0.00    +0.000 OA
ENDROOT
TORSDOF 0
REMARK  Name = ../refined-set-2016/2xbx/2xbx_pocket.pdb
REMARK  221 active torsions:
REMARK  status: ('A' for Active; 'I' for Inactive)
REMARK    1  A    between atoms: _1  and  _3
REMARK    2  A    between atoms: _3  and  _4
REMARK    3  A    between atoms: _3  and  _6
REMARK    4  A    between atoms: _9  and  _11
REMARK    5  A    between atoms: _11  and  _12
REMARK    6  A    between atoms: _11  and  _14
REMARK    7  A    between atoms: _14  and  _15
REMARK    8  A    between atoms: _20  and  _22
REMARK    9  A    between atoms: _22  and  _23
REMARK   10  A    between atoms: _22  and  _25
REMARK   11  A    between atoms: _25  and  _26
REMARK   12  A    between atoms: _26  and  _27
REMARK   13  A    between atoms: _32  and  _34
REMARK   14  A    between atoms: _34  and  _35
REMARK   15  A    between atoms: _34  and  _37
REMARK   16  A    between atoms: _37  and  _38
REMARK   17  A    between atoms: _44  and  _46
REMARK   18  A    between atoms: _46  and  _47
REMARK   19  A    between atoms: _46  and  _49
REMARK   20  A    between atoms: _49  and  _50
REMARK   21  A    between atoms: _53  and  _55
REMARK   22  A    between atoms: _55  and  _56
REMARK   23  A    between atoms: _55  and  _58
REMARK   24  A    between atoms: _58  and  _59
REMARK   25  A    between atoms: _59  and  _60
REMARK   26  A    between atoms: _60  and  _61
REMARK   27  A    between atoms: _61  and  _62
REMARK   28  A    between atoms: _66  and  _68
REMARK   29  A    between atoms: _68  and  _69
REMARK   30  A    between atoms: _68  and  _71
REMARK   31  A    between atoms: _71  and  _72
REMARK   32  A    between atoms: _72  and  _73
REMARK   33  A    between atoms: _76  and  _78
REMARK   34  A    between atoms: _78  and  _79
REMARK   35  A    between atoms: _78  and  _81
REMARK   36  A    between atoms: _81  and  _82
REMARK   37  A    between atoms: _85  and  _87
REMARK   38  A    between atoms: _87  and  _88
REMARK   39  A    between atoms: _87  and  _90
REMARK   40  A    between atoms: _90  and  _91
REMARK   41  A    between atoms: _96  and  _97
REMARK   42  A    between atoms: _99  and  _101
REMARK   43  A    between atoms: _101  and  _102
REMARK   44  A    between atoms: _101  and  _104
REMARK   45  A    between atoms: _104  and  _105
REMARK   46  A    between atoms: _108  and  _110
REMARK   47  A    between atoms: _110  and  _111
REMARK   48  A    between atoms: _110  and  _113
REMARK   49  A    between atoms: _113  and  _114
REMARK   50  A    between atoms: _117  and  _119
REMARK   51  A    between atoms: _119  and  _120
REMARK   52  A    between atoms: _119  and  _122
REMARK   53  A    between atoms: _125  and  _127
REMARK   54  A    between atoms: _127  and  _128
REMARK   55  A    between atoms: _127  and  _130
REMARK   56  A    between atoms: _130  and  _131
REMARK   57  A    between atoms: _131  and  _132
REMARK   58  A    between atoms: _132  and  _133
REMARK   59  A    between atoms: _142  and  _144
REMARK   60  A    between atoms: _144  and  _145
REMARK   61  A    between atoms: _144  and  _147
REMARK   62  A    between atoms: _147  and  _148
REMARK   63  A    between atoms: _153  and  _155
REMARK   64  A    between atoms: _155  and  _156
REMARK   65  A    between atoms: _155  and  _158
REMARK   66  A    between atoms: _158  and  _159
REMARK   67  A    between atoms: _159  and  _160
REMARK   68  A    between atoms: _163  and  _165
REMARK   69  A    between atoms: _165  and  _166
REMARK   70  A    between atoms: _165  and  _168
REMARK   71  A    between atoms: _168  and  _169
REMARK   72  A    between atoms: _169  and  _170
REMARK   73  A    between atoms: _170  and  _171
REMARK   74  A    between atoms: _171  and  _172
REMARK   75  A    between atoms: _176  and  _178
REMARK   76  A    between atoms: _178  and  _179
REMARK   77  A    between atoms: _181  and  _183
REMARK   78  A    between atoms: _183  and  _184
REMARK   79  A    between atoms: _183  and  _186
REMARK   80  A    between atoms: _189  and  _191
REMARK   81  A    between atoms: _191  and  _192
REMARK   82  A    between atoms: _191  and  _194
REMARK   83  A    between atoms: _194  and  _195
REMARK   84  A    between atoms: _197  and  _199
REMARK   85  A    between atoms: _199  and  _200
REMARK   86  A    between atoms: _199  and  _202
REMARK   87  A    between atoms: _202  and  _203
REMARK   88  A    between atoms: _205  and  _207
REMARK   89  A    between atoms: _207  and  _208
REMARK   90  A    between atoms: _207  and  _210
REMARK   91  A    between atoms: _210  and  _211
REMARK   92  A    between atoms: _217  and  _219
REMARK   93  A    between atoms: _219  and  _220
REMARK   94  A    between atoms: _219  and  _222
REMARK   95  A    between atoms: _222  and  _223
REMARK   96  A    between atoms: _226  and  _228
REMARK   97  A    between atoms: _228  and  _229
REMARK   98  A    between atoms: _228  and  _231
REMARK   99  A    between atoms: _231  and  _232
REMARK  100  A    between atoms: _235  and  _237
REMARK  101  A    between atoms: _237  and  _238
REMARK  102  A    between atoms: _237  and  _240
REMARK  103  A    between atoms: _240  and  _241
REMARK  104  A    between atoms: _244  and  _246
REMARK  105  A    between atoms: _246  and  _247
REMARK  106  A    between atoms: _246  and  _249
REMARK  107  A    between atoms: _249  and  _250
REMARK  108  A    between atoms: _250  and  _251
REMARK  109  A    between atoms: _253  and  _255
REMARK  110  A    between atoms: _255  and  _256
REMARK  111  A    between atoms: _255  and  _258
REMARK  112  A    between atoms: _258  and  _259
REMARK  113  A    between atoms: _265  and  _267
REMARK  114  A    between atoms: _267  and  _268
REMARK  115  A    between atoms: _267  and  _270
REMARK  116  A    between atoms: _272  and  _274
REMARK  117  A    between atoms: _274  and  _275
REMARK  118  A    between atoms: _278  and  _280
REMARK  119  A    between atoms: _280  and  _281
REMARK  120  A    between atoms: _283  and  _285
REMARK  121  A    between atoms: _285  and  _286
REMARK  122  A    between atoms: _285  and  _288
REMARK  123  A    between atoms: _288  and  _289
REMARK  124  A    between atoms: _289  and  _290
REMARK  125  A    between atoms: _293  and  _295
REMARK  126  A    between atoms: _295  and  _296
REMARK  127  A    between atoms: _295  and  _298
REMARK  128  A    between atoms: _298  and  _299
REMARK  129  A    between atoms: _302  and  _304
REMARK  130  A    between atoms: _304  and  _305
REMARK  131  A    between atoms: _308  and  _310
REMARK  132  A    between atoms: _310  and  _311
REMARK  133  A    between atoms: _310  and  _313
REMARK  134  A    between atoms: _313  and  _314
REMARK  135  A    between atoms: _314  and  _437
REMARK  136  A    between atoms: _315  and  _317
REMARK  137  A    between atoms: _317  and  _318
REMARK  138  A    between atoms: _317  and  _320
REMARK  139  A    between atoms: _320  and  _321
REMARK  140  A    between atoms: _321  and  _322
REMARK  141  A    between atoms: _327  and  _329
REMARK  142  A    between atoms: _329  and  _330
REMARK  143  A    between atoms: _332  and  _334
REMARK  144  A    between atoms: _334  and  _335
REMARK  145  A    between atoms: _334  and  _337
REMARK  146  A    between atoms: _337  and  _338
REMARK  147  A    between atoms: _341  and  _343
REMARK  148  A    between atoms: _343  and  _344
REMARK  149  A    between atoms: _343  and  _346
REMARK  150  A    between atoms: _346  and  _347
REMARK  151  A    between atoms: _349  and  _351
REMARK  152  A    between atoms: _351  and  _352
REMARK  153  A    between atoms: _354  and  _356
REMARK  154  A    between atoms: _356  and  _357
REMARK  155  A    between atoms: _359  and  _361
REMARK  156  A    between atoms: _361  and  _362
REMARK  157  A    between atoms: _361  and  _364
REMARK  158  A    between atoms: _364  and  _365
REMARK  159  A    between atoms: _370  and  _372
REMARK  160  A    between atoms: _372  and  _373
REMARK  161  A    between atoms: _372  and  _375
REMARK  162  A    between atoms: _375  and  _376
REMARK  163  A    between atoms: _379  and  _381
REMARK  164  A    between atoms: _381  and  _382
REMARK  165  A    between atoms: _381  and  _384
REMARK  166  A    between atoms: _387  and  _389
REMARK  167  A    between atoms: _389  and  _390
REMARK  168  A    between atoms: _389  and  _392
REMARK  169  A    between atoms: _392  and  _393
REMARK  170  A    between atoms: _395  and  _397
REMARK  171  A    between atoms: _397  and  _398
REMARK  172  A    between atoms: _397  and  _400
REMARK  173  A    between atoms: _400  and  _401
REMARK  174  A    between atoms: _411  and  _413
REMARK  175  A    between atoms: _413  and  _414
REMARK  176  A    between atoms: _416  and  _418
REMARK  177  A    between atoms: _418  and  _419
REMARK  178  A    between atoms: _418  and  _421
REMARK  179  A    between atoms: _421  and  _422
REMARK  180  A    between atoms: _422  and  _423
REMARK  181  A    between atoms: _426  and  _428
REMARK  182  A    between atoms: _428  and  _429
REMARK  183  A    between atoms: _431  and  _433
REMARK  184  A    between atoms: _433  and  _434
REMARK  185  A    between atoms: _433  and  _436
REMARK  186  A    between atoms: _436  and  _437
REMARK  187  A    between atoms: _438  and  _440
REMARK  188  A    between atoms: _440  and  _441
REMARK  189  A    between atoms: _444  and  _446
REMARK  190  A    between atoms: _446  and  _447
REMARK  191  A    between atoms: _446  and  _449
REMARK  192  A    between atoms: _449  and  _450
REMARK  193  A    between atoms: _450  and  _451
REMARK  194  A    between atoms: _451  and  _452
REMARK  195  A    between atoms: _461  and  _463
REMARK  196  A    between atoms: _463  and  _464
REMARK  197  A    between atoms: _463  and  _466
REMARK  198  A    between atoms: _466  and  _467
REMARK  199  A    between atoms: _467  and  _468
REMARK  200  A    between atoms: _468  and  _469
REMARK  201  A    between atoms: _469  and  _470
REMARK  202  A    between atoms: _474  and  _476
REMARK  203  A    between atoms: _476  and  _477
REMARK  204  A    between atoms: _476  and  _479
REMARK  205  A    between atoms: _479  and  _480
REMARK  206  A    between atoms: _485  and  _486
REMARK  207  A    between atoms: _488  and  _490
REMARK  208  A    between atoms: _490  and  _491
REMARK  209  A    between atoms: _493  and  _495
REMARK  210  A    between atoms: _495  and  _496
REMARK  211  A    between atoms: _495  and  _498
REMARK  212  A    between atoms: _498  and  _499
REMARK  213  A    between atoms: _502  and  _504
REMARK  214  A    between atoms: _504  and  _505
REMARK  215  A    between atoms: _504  and  _507
REMARK  216  A    between atoms: _507  and  _508
REMARK  217  A    between atoms: _513  and  _514
REMARK  218  A    between atoms: _516  and  _518
REMARK  219  A    between atoms: _518  and  _519
REMARK  220  A    between atoms: _518  and  _521
REMARK  221  A    between atoms: _521  and  _522
REMARK                            x       y       z     vdW  Elec       q    Type
REMARK                         _______ _______ _______ _____ _____    ______ ____
ROOT
ATOM      1  O   HOH     1       9.720  62.188  10.275  0.00  0.00    +0.000 OA
ENDROOT
TORSDOF 0
REMARK  Name = ../refined-set-2016/2xbx/2xbx_pocket.pdb
REMARK  221 active torsions:
REMARK  status: ('A' for Active; 'I' for Inactive)
REMARK    1  A    between atoms: _1  and  _3
REMARK    2  A    between atoms: _3  and  _4
REMARK    3  A    between atoms: _3  and  _6
REMARK    4  A    between atoms: _9  and  _11
REMARK    5  A    between atoms: _11  and  _12
REMARK    6  A    between atoms: _11  and  _14
REMARK    7  A    between atoms: _14  and  _15
REMARK    8  A    between atoms: _20  and  _22
REMARK    9  A    between atoms: _22  and  _23
REMARK   10  A    between atoms: _22  and  _25
REMARK   11  A    between atoms: _25  and  _26
REMARK   12  A    between atoms: _26  and  _27
REMARK   13  A    between atoms: _32  and  _34
REMARK   14  A    between atoms: _34  and  _35
REMARK   15  A    between atoms: _34  and  _37
REMARK   16  A    between atoms: _37  and  _38
REMARK   17  A    between atoms: _44  and  _46
REMARK   18  A    between atoms: _46  and  _47
REMARK   19  A    between atoms: _46  and  _49
REMARK   20  A    between atoms: _49  and  _50
REMARK   21  A    between atoms: _53  and  _55
REMARK   22  A    between atoms: _55  and  _56
REMARK   23  A    between atoms: _55  and  _58
REMARK   24  A    between atoms: _58  and  _59
REMARK   25  A    between atoms: _59  and  _60
REMARK   26  A    between atoms: _60  and  _61
REMARK   27  A    between atoms: _61  and  _62
REMARK   28  A    between atoms: _66  and  _68
REMARK   29  A    between atoms: _68  and  _69
REMARK   30  A    between atoms: _68  and  _71
REMARK   31  A    between atoms: _71  and  _72
REMARK   32  A    between atoms: _72  and  _73
REMARK   33  A    between atoms: _76  and  _78
REMARK   34  A    between atoms: _78  and  _79
REMARK   35  A    between atoms: _78  and  _81
REMARK   36  A    between atoms: _81  and  _82
REMARK   37  A    between atoms: _85  and  _87
REMARK   38  A    between atoms: _87  and  _88
REMARK   39  A    between atoms: _87  and  _90
REMARK   40  A    between atoms: _90  and  _91
REMARK   41  A    between atoms: _96  and  _97
REMARK   42  A    between atoms: _99  and  _101
REMARK   43  A    between atoms: _101  and  _102
REMARK   44  A    between atoms: _101  and  _104
REMARK   45  A    between atoms: _104  and  _105
REMARK   46  A    between atoms: _108  and  _110
REMARK   47  A    between atoms: _110  and  _111
REMARK   48  A    between atoms: _110  and  _113
REMARK   49  A    between atoms: _113  and  _114
REMARK   50  A    between atoms: _117  and  _119
REMARK   51  A    between atoms: _119  and  _120
REMARK   52  A    between atoms: _119  and  _122
REMARK   53  A    between atoms: _125  and  _127
REMARK   54  A    between atoms: _127  and  _128
REMARK   55  A    between atoms: _127  and  _130
REMARK   56  A    between atoms: _130  and  _131
REMARK   57  A    between atoms: _131  and  _132
REMARK   58  A    between atoms: _132  and  _133
REMARK   59  A    between atoms: _142  and  _144
REMARK   60  A    between atoms: _144  and  _145
REMARK   61  A    between atoms: _144  and  _147
REMARK   62  A    between atoms: _147  and  _148
REMARK   63  A    between atoms: _153  and  _155
REMARK   64  A    between atoms: _155  and  _156
REMARK   65  A    between atoms: _155  and  _158
REMARK   66  A    between atoms: _158  and  _159
REMARK   67  A    between atoms: _159  and  _160
REMARK   68  A    between atoms: _163  and  _165
REMARK   69  A    between atoms: _165  and  _166
REMARK   70  A    between atoms: _165  and  _168
REMARK   71  A    between atoms: _168  and  _169
REMARK   72  A    between atoms: _169  and  _170
REMARK   73  A    between atoms: _170  and  _171
REMARK   74  A    between atoms: _171  and  _172
REMARK   75  A    between atoms: _176  and  _178
REMARK   76  A    between atoms: _178  and  _179
REMARK   77  A    between atoms: _181  and  _183
REMARK   78  A    between atoms: _183  and  _184
REMARK   79  A    between atoms: _183  and  _186
REMARK   80  A    between atoms: _189  and  _191
REMARK   81  A    between atoms: _191  and  _192
REMARK   82  A    between atoms: _191  and  _194
REMARK   83  A    between atoms: _194  and  _195
REMARK   84  A    between atoms: _197  and  _199
REMARK   85  A    between atoms: _199  and  _200
REMARK   86  A    between atoms: _199  and  _202
REMARK   87  A    between atoms: _202  and  _203
REMARK   88  A    between atoms: _205  and  _207
REMARK   89  A    between atoms: _207  and  _208
REMARK   90  A    between atoms: _207  and  _210
REMARK   91  A    between atoms: _210  and  _211
REMARK   92  A    between atoms: _217  and  _219
REMARK   93  A    between atoms: _219  and  _220
REMARK   94  A    between atoms: _219  and  _222
REMARK   95  A    between atoms: _222  and  _223
REMARK   96  A    between atoms: _226  and  _228
REMARK   97  A    between atoms: _228  and  _229
REMARK   98  A    between atoms: _228  and  _231
REMARK   99  A    between atoms: _231  and  _232
REMARK  100  A    between atoms: _235  and  _237
REMARK  101  A    between atoms: _237  and  _238
REMARK  102  A    between atoms: _237  and  _240
REMARK  103  A    between atoms: _240  and  _241
REMARK  104  A    between atoms: _244  and  _246
REMARK  105  A    between atoms: _246  and  _247
REMARK  106  A    between atoms: _246  and  _249
REMARK  107  A    between atoms: _249  and  _250
REMARK  108  A    between atoms: _250  and  _251
REMARK  109  A    between atoms: _253  and  _255
REMARK  110  A    between atoms: _255  and  _256
REMARK  111  A    between atoms: _255  and  _258
REMARK  112  A    between atoms: _258  and  _259
REMARK  113  A    between atoms: _265  and  _267
REMARK  114  A    between atoms: _267  and  _268
REMARK  115  A    between atoms: _267  and  _270
REMARK  116  A    between atoms: _272  and  _274
REMARK  117  A    between atoms: _274  and  _275
REMARK  118  A    between atoms: _278  and  _280
REMARK  119  A    between atoms: _280  and  _281
REMARK  120  A    between atoms: _283  and  _285
REMARK  121  A    between atoms: _285  and  _286
REMARK  122  A    between atoms: _285  and  _288
REMARK  123  A    between atoms: _288  and  _289
REMARK  124  A    between atoms: _289  and  _290
REMARK  125  A    between atoms: _293  and  _295
REMARK  126  A    between atoms: _295  and  _296
REMARK  127  A    between atoms: _295  and  _298
REMARK  128  A    between atoms: _298  and  _299
REMARK  129  A    between atoms: _302  and  _304
REMARK  130  A    between atoms: _304  and  _305
REMARK  131  A    between atoms: _308  and  _310
REMARK  132  A    between atoms: _310  and  _311
REMARK  133  A    between atoms: _310  and  _313
REMARK  134  A    between atoms: _313  and  _314
REMARK  135  A    between atoms: _314  and  _437
REMARK  136  A    between atoms: _315  and  _317
REMARK  137  A    between atoms: _317  and  _318
REMARK  138  A    between atoms: _317  and  _320
REMARK  139  A    between atoms: _320  and  _321
REMARK  140  A    between atoms: _321  and  _322
REMARK  141  A    between atoms: _327  and  _329
REMARK  142  A    between atoms: _329  and  _330
REMARK  143  A    between atoms: _332  and  _334
REMARK  144  A    between atoms: _334  and  _335
REMARK  145  A    between atoms: _334  and  _337
REMARK  146  A    between atoms: _337  and  _338
REMARK  147  A    between atoms: _341  and  _343
REMARK  148  A    between atoms: _343  and  _344
REMARK  149  A    between atoms: _343  and  _346
REMARK  150  A    between atoms: _346  and  _347
REMARK  151  A    between atoms: _349  and  _351
REMARK  152  A    between atoms: _351  and  _352
REMARK  153  A    between atoms: _354  and  _356
REMARK  154  A    between atoms: _356  and  _357
REMARK  155  A    between atoms: _359  and  _361
REMARK  156  A    between atoms: _361  and  _362
REMARK  157  A    between atoms: _361  and  _364
REMARK  158  A    between atoms: _364  and  _365
REMARK  159  A    between atoms: _370  and  _372
REMARK  160  A    between atoms: _372  and  _373
REMARK  161  A    between atoms: _372  and  _375
REMARK  162  A    between atoms: _375  and  _376
REMARK  163  A    between atoms: _379  and  _381
REMARK  164  A    between atoms: _381  and  _382
REMARK  165  A    between atoms: _381  and  _384
REMARK  166  A    between atoms: _387  and  _389
REMARK  167  A    between atoms: _389  and  _390
REMARK  168  A    between atoms: _389  and  _392
REMARK  169  A    between atoms: _392  and  _393
REMARK  170  A    between atoms: _395  and  _397
REMARK  171  A    between atoms: _397  and  _398
REMARK  172  A    between atoms: _397  and  _400
REMARK  173  A    between atoms: _400  and  _401
REMARK  174  A    between atoms: _411  and  _413
REMARK  175  A    between atoms: _413  and  _414
REMARK  176  A    between atoms: _416  and  _418
REMARK  177  A    between atoms: _418  and  _419
REMARK  178  A    between atoms: _418  and  _421
REMARK  179  A    between atoms: _421  and  _422
REMARK  180  A    between atoms: _422  and  _423
REMARK  181  A    between atoms: _426  and  _428
REMARK  182  A    between atoms: _428  and  _429
REMARK  183  A    between atoms: _431  and  _433
REMARK  184  A    between atoms: _433  and  _434
REMARK  185  A    between atoms: _433  and  _436
REMARK  186  A    between atoms: _436  and  _437
REMARK  187  A    between atoms: _438  and  _440
REMARK  188  A    between atoms: _440  and  _441
REMARK  189  A    between atoms: _444  and  _446
REMARK  190  A    between atoms: _446  and  _447
REMARK  191  A    between atoms: _446  and  _449
REMARK  192  A    between atoms: _449  and  _450
REMARK  193  A    between atoms: _450  and  _451
REMARK  194  A    between atoms: _451  and  _452
REMARK  195  A    between atoms: _461  and  _463
REMARK  196  A    between atoms: _463  and  _464
REMARK  197  A    between atoms: _463  and  _466
REMARK  198  A    between atoms: _466  and  _467
REMARK  199  A    between atoms: _467  and  _468
REMARK  200  A    between atoms: _468  and  _469
REMARK  201  A    between atoms: _469  and  _470
REMARK  202  A    between atoms: _474  and  _476
REMARK  203  A    between atoms: _476  and  _477
REMARK  204  A    between atoms: _476  and  _479
REMARK  205  A    between atoms: _479  and  _480
REMARK  206  A    between atoms: _485  and  _486
REMARK  207  A    between atoms: _488  and  _490
REMARK  208  A    between atoms: _490  and  _491
REMARK  209  A    between atoms: _493  and  _495
REMARK  210  A    between atoms: _495  and  _496
REMARK  211  A    between atoms: _495  and  _498
REMARK  212  A    between atoms: _498  and  _499
REMARK  213  A    between atoms: _502  and  _504
REMARK  214  A    between atoms: _504  and  _505
REMARK  215  A    between atoms: _504  and  _507
REMARK  216  A    between atoms: _507  and  _508
REMARK  217  A    between atoms: _513  and  _514
REMARK  218  A    between atoms: _516  and  _518
REMARK  219  A    between atoms: _518  and  _519
REMARK  220  A    between atoms: _518  and  _521
REMARK  221  A    between atoms: _521  and  _522
REMARK                            x       y       z     vdW  Elec       q    Type
REMARK                         _______ _______ _______ _____ _____    ______ ____
ROOT
ATOM      1  O   HOH     1       3.154  64.617  10.341  0.00  0.00    +0.000 OA
ENDROOT
TORSDOF 0
REMARK  Name = ../refined-set-2016/2xbx/2xbx_pocket.pdb
REMARK  221 active torsions:
REMARK  status: ('A' for Active; 'I' for Inactive)
REMARK    1  A    between atoms: _1  and  _3
REMARK    2  A    between atoms: _3  and  _4
REMARK    3  A    between atoms: _3  and  _6
REMARK    4  A    between atoms: _9  and  _11
REMARK    5  A    between atoms: _11  and  _12
REMARK    6  A    between atoms: _11  and  _14
REMARK    7  A    between atoms: _14  and  _15
REMARK    8  A    between atoms: _20  and  _22
REMARK    9  A    between atoms: _22  and  _23
REMARK   10  A    between atoms: _22  and  _25
REMARK   11  A    between atoms: _25  and  _26
REMARK   12  A    between atoms: _26  and  _27
REMARK   13  A    between atoms: _32  and  _34
REMARK   14  A    between atoms: _34  and  _35
REMARK   15  A    between atoms: _34  and  _37
REMARK   16  A    between atoms: _37  and  _38
REMARK   17  A    between atoms: _44  and  _46
REMARK   18  A    between atoms: _46  and  _47
REMARK   19  A    between atoms: _46  and  _49
REMARK   20  A    between atoms: _49  and  _50
REMARK   21  A    between atoms: _53  and  _55
REMARK   22  A    between atoms: _55  and  _56
REMARK   23  A    between atoms: _55  and  _58
REMARK   24  A    between atoms: _58  and  _59
REMARK   25  A    between atoms: _59  and  _60
REMARK   26  A    between atoms: _60  and  _61
REMARK   27  A    between atoms: _61  and  _62
REMARK   28  A    between atoms: _66  and  _68
REMARK   29  A    between atoms: _68  and  _69
REMARK   30  A    between atoms: _68  and  _71
REMARK   31  A    between atoms: _71  and  _72
REMARK   32  A    between atoms: _72  and  _73
REMARK   33  A    between atoms: _76  and  _78
REMARK   34  A    between atoms: _78  and  _79
REMARK   35  A    between atoms: _78  and  _81
REMARK   36  A    between atoms: _81  and  _82
REMARK   37  A    between atoms: _85  and  _87
REMARK   38  A    between atoms: _87  and  _88
REMARK   39  A    between atoms: _87  and  _90
REMARK   40  A    between atoms: _90  and  _91
REMARK   41  A    between atoms: _96  and  _97
REMARK   42  A    between atoms: _99  and  _101
REMARK   43  A    between atoms: _101  and  _102
REMARK   44  A    between atoms: _101  and  _104
REMARK   45  A    between atoms: _104  and  _105
REMARK   46  A    between atoms: _108  and  _110
REMARK   47  A    between atoms: _110  and  _111
REMARK   48  A    between atoms: _110  and  _113
REMARK   49  A    between atoms: _113  and  _114
REMARK   50  A    between atoms: _117  and  _119
REMARK   51  A    between atoms: _119  and  _120
REMARK   52  A    between atoms: _119  and  _122
REMARK   53  A    between atoms: _125  and  _127
REMARK   54  A    between atoms: _127  and  _128
REMARK   55  A    between atoms: _127  and  _130
REMARK   56  A    between atoms: _130  and  _131
REMARK   57  A    between atoms: _131  and  _132
REMARK   58  A    between atoms: _132  and  _133
REMARK   59  A    between atoms: _142  and  _144
REMARK   60  A    between atoms: _144  and  _145
REMARK   61  A    between atoms: _144  and  _147
REMARK   62  A    between atoms: _147  and  _148
REMARK   63  A    between atoms: _153  and  _155
REMARK   64  A    between atoms: _155  and  _156
REMARK   65  A    between atoms: _155  and  _158
REMARK   66  A    between atoms: _158  and  _159
REMARK   67  A    between atoms: _159  and  _160
REMARK   68  A    between atoms: _163  and  _165
REMARK   69  A    between atoms: _165  and  _166
REMARK   70  A    between atoms: _165  and  _168
REMARK   71  A    between atoms: _168  and  _169
REMARK   72  A    between atoms: _169  and  _170
REMARK   73  A    between atoms: _170  and  _171
REMARK   74  A    between atoms: _171  and  _172
REMARK   75  A    between atoms: _176  and  _178
REMARK   76  A    between atoms: _178  and  _179
REMARK   77  A    between atoms: _181  and  _183
REMARK   78  A    between atoms: _183  and  _184
REMARK   79  A    between atoms: _183  and  _186
REMARK   80  A    between atoms: _189  and  _191
REMARK   81  A    between atoms: _191  and  _192
REMARK   82  A    between atoms: _191  and  _194
REMARK   83  A    between atoms: _194  and  _195
REMARK   84  A    between atoms: _197  and  _199
REMARK   85  A    between atoms: _199  and  _200
REMARK   86  A    between atoms: _199  and  _202
REMARK   87  A    between atoms: _202  and  _203
REMARK   88  A    between atoms: _205  and  _207
REMARK   89  A    between atoms: _207  and  _208
REMARK   90  A    between atoms: _207  and  _210
REMARK   91  A    between atoms: _210  and  _211
REMARK   92  A    between atoms: _217  and  _219
REMARK   93  A    between atoms: _219  and  _220
REMARK   94  A    between atoms: _219  and  _222
REMARK   95  A    between atoms: _222  and  _223
REMARK   96  A    between atoms: _226  and  _228
REMARK   97  A    between atoms: _228  and  _229
REMARK   98  A    between atoms: _228  and  _231
REMARK   99  A    between atoms: _231  and  _232
REMARK  100  A    between atoms: _235  and  _237
REMARK  101  A    between atoms: _237  and  _238
REMARK  102  A    between atoms: _237  and  _240
REMARK  103  A    between atoms: _240  and  _241
REMARK  104  A    between atoms: _244  and  _246
REMARK  105  A    between atoms: _246  and  _247
REMARK  106  A    between atoms: _246  and  _249
REMARK  107  A    between atoms: _249  and  _250
REMARK  108  A    between atoms: _250  and  _251
REMARK  109  A    between atoms: _253  and  _255
REMARK  110  A    between atoms: _255  and  _256
REMARK  111  A    between atoms: _255  and  _258
REMARK  112  A    between atoms: _258  and  _259
REMARK  113  A    between atoms: _265  and  _267
REMARK  114  A    between atoms: _267  and  _268
REMARK  115  A    between atoms: _267  and  _270
REMARK  116  A    between atoms: _272  and  _274
REMARK  117  A    between atoms: _274  and  _275
REMARK  118  A    between atoms: _278  and  _280
REMARK  119  A    between atoms: _280  and  _281
REMARK  120  A    between atoms: _283  and  _285
REMARK  121  A    between atoms: _285  and  _286
REMARK  122  A    between atoms: _285  and  _288
REMARK  123  A    between atoms: _288  and  _289
REMARK  124  A    between atoms: _289  and  _290
REMARK  125  A    between atoms: _293  and  _295
REMARK  126  A    between atoms: _295  and  _296
REMARK  127  A    between atoms: _295  and  _298
REMARK  128  A    between atoms: _298  and  _299
REMARK  129  A    between atoms: _302  and  _304
REMARK  130  A    between atoms: _304  and  _305
REMARK  131  A    between atoms: _308  and  _310
REMARK  132  A    between atoms: _310  and  _311
REMARK  133  A    between atoms: _310  and  _313
REMARK  134  A    between atoms: _313  and  _314
REMARK  135  A    between atoms: _314  and  _437
REMARK  136  A    between atoms: _315  and  _317
REMARK  137  A    between atoms: _317  and  _318
REMARK  138  A    between atoms: _317  and  _320
REMARK  139  A    between atoms: _320  and  _321
REMARK  140  A    between atoms: _321  and  _322
REMARK  141  A    between atoms: _327  and  _329
REMARK  142  A    between atoms: _329  and  _330
REMARK  143  A    between atoms: _332  and  _334
REMARK  144  A    between atoms: _334  and  _335
REMARK  145  A    between atoms: _334  and  _337
REMARK  146  A    between atoms: _337  and  _338
REMARK  147  A    between atoms: _341  and  _343
REMARK  148  A    between atoms: _343  and  _344
REMARK  149  A    between atoms: _343  and  _346
REMARK  150  A    between atoms: _346  and  _347
REMARK  151  A    between atoms: _349  and  _351
REMARK  152  A    between atoms: _351  and  _352
REMARK  153  A    between atoms: _354  and  _356
REMARK  154  A    between atoms: _356  and  _357
REMARK  155  A    between atoms: _359  and  _361
REMARK  156  A    between atoms: _361  and  _362
REMARK  157  A    between atoms: _361  and  _364
REMARK  158  A    between atoms: _364  and  _365
REMARK  159  A    between atoms: _370  and  _372
REMARK  160  A    between atoms: _372  and  _373
REMARK  161  A    between atoms: _372  and  _375
REMARK  162  A    between atoms: _375  and  _376
REMARK  163  A    between atoms: _379  and  _381
REMARK  164  A    between atoms: _381  and  _382
REMARK  165  A    between atoms: _381  and  _384
REMARK  166  A    between atoms: _387  and  _389
REMARK  167  A    between atoms: _389  and  _390
REMARK  168  A    between atoms: _389  and  _392
REMARK  169  A    between atoms: _392  and  _393
REMARK  170  A    between atoms: _395  and  _397
REMARK  171  A    between atoms: _397  and  _398
REMARK  172  A    between atoms: _397  and  _400
REMARK  173  A    between atoms: _400  and  _401
REMARK  174  A    between atoms: _411  and  _413
REMARK  175  A    between atoms: _413  and  _414
REMARK  176  A    between atoms: _416  and  _418
REMARK  177  A    between atoms: _418  and  _419
REMARK  178  A    between atoms: _418  and  _421
REMARK  179  A    between atoms: _421  and  _422
REMARK  180  A    between atoms: _422  and  _423
REMARK  181  A    between atoms: _426  and  _428
REMARK  182  A    between atoms: _428  and  _429
REMARK  183  A    between atoms: _431  and  _433
REMARK  184  A    between atoms: _433  and  _434
REMARK  185  A    between atoms: _433  and  _436
REMARK  186  A    between atoms: _436  and  _437
REMARK  187  A    between atoms: _438  and  _440
REMARK  188  A    between atoms: _440  and  _441
REMARK  189  A    between atoms: _444  and  _446
REMARK  190  A    between atoms: _446  and  _447
REMARK  191  A    between atoms: _446  and  _449
REMARK  192  A    between atoms: _449  and  _450
REMARK  193  A    between atoms: _450  and  _451
REMARK  194  A    between atoms: _451  and  _452
REMARK  195  A    between atoms: _461  and  _463
REMARK  196  A    between atoms: _463  and  _464
REMARK  197  A    between atoms: _463  and  _466
REMARK  198  A    between atoms: _466  and  _467
REMARK  199  A    between atoms: _467  and  _468
REMARK  200  A    between atoms: _468  and  _469
REMARK  201  A    between atoms: _469  and  _470
REMARK  202  A    between atoms: _474  and  _476
REMARK  203  A    between atoms: _476  and  _477
REMARK  204  A    between atoms: _476  and  _479
REMARK  205  A    between atoms: _479  and  _480
REMARK  206  A    between atoms: _485  and  _486
REMARK  207  A    between atoms: _488  and  _490
REMARK  208  A    between atoms: _490  and  _491
REMARK  209  A    between atoms: _493  and  _495
REMARK  210  A    between atoms: _495  and  _496
REMARK  211  A    between atoms: _495  and  _498
REMARK  212  A    between atoms: _498  and  _499
REMARK  213  A    between atoms: _502  and  _504
REMARK  214  A    between atoms: _504  and  _505
REMARK  215  A    between atoms: _504  and  _507
REMARK  216  A    between atoms: _507  and  _508
REMARK  217  A    between atoms: _513  and  _514
REMARK  218  A    between atoms: _516  and  _518
REMARK  219  A    between atoms: _518  and  _519
REMARK  220  A    between atoms: _518  and  _521
REMARK  221  A    between atoms: _521  and  _522
REMARK                            x       y       z     vdW  Elec       q    Type
REMARK                         _______ _______ _______ _____ _____    ______ ____
ROOT
ATOM      1  O   HOH     1       8.184  59.843  10.677  0.00  0.00    +0.000 OA
ENDROOT
TORSDOF 0
REMARK  Name = ../refined-set-2016/2xbx/2xbx_pocket.pdb
REMARK  221 active torsions:
REMARK  status: ('A' for Active; 'I' for Inactive)
REMARK    1  A    between atoms: _1  and  _3
REMARK    2  A    between atoms: _3  and  _4
REMARK    3  A    between atoms: _3  and  _6
REMARK    4  A    between atoms: _9  and  _11
REMARK    5  A    between atoms: _11  and  _12
REMARK    6  A    between atoms: _11  and  _14
REMARK    7  A    between atoms: _14  and  _15
REMARK    8  A    between atoms: _20  and  _22
REMARK    9  A    between atoms: _22  and  _23
REMARK   10  A    between atoms: _22  and  _25
REMARK   11  A    between atoms: _25  and  _26
REMARK   12  A    between atoms: _26  and  _27
REMARK   13  A    between atoms: _32  and  _34
REMARK   14  A    between atoms: _34  and  _35
REMARK   15  A    between atoms: _34  and  _37
REMARK   16  A    between atoms: _37  and  _38
REMARK   17  A    between atoms: _44  and  _46
REMARK   18  A    between atoms: _46  and  _47
REMARK   19  A    between atoms: _46  and  _49
REMARK   20  A    between atoms: _49  and  _50
REMARK   21  A    between atoms: _53  and  _55
REMARK   22  A    between atoms: _55  and  _56
REMARK   23  A    between atoms: _55  and  _58
REMARK   24  A    between atoms: _58  and  _59
REMARK   25  A    between atoms: _59  and  _60
REMARK   26  A    between atoms: _60  and  _61
REMARK   27  A    between atoms: _61  and  _62
REMARK   28  A    between atoms: _66  and  _68
REMARK   29  A    between atoms: _68  and  _69
REMARK   30  A    between atoms: _68  and  _71
REMARK   31  A    between atoms: _71  and  _72
REMARK   32  A    between atoms: _72  and  _73
REMARK   33  A    between atoms: _76  and  _78
REMARK   34  A    between atoms: _78  and  _79
REMARK   35  A    between atoms: _78  and  _81
REMARK   36  A    between atoms: _81  and  _82
REMARK   37  A    between atoms: _85  and  _87
REMARK   38  A    between atoms: _87  and  _88
REMARK   39  A    between atoms: _87  and  _90
REMARK   40  A    between atoms: _90  and  _91
REMARK   41  A    between atoms: _96  and  _97
REMARK   42  A    between atoms: _99  and  _101
REMARK   43  A    between atoms: _101  and  _102
REMARK   44  A    between atoms: _101  and  _104
REMARK   45  A    between atoms: _104  and  _105
REMARK   46  A    between atoms: _108  and  _110
REMARK   47  A    between atoms: _110  and  _111
REMARK   48  A    between atoms: _110  and  _113
REMARK   49  A    between atoms: _113  and  _114
REMARK   50  A    between atoms: _117  and  _119
REMARK   51  A    between atoms: _119  and  _120
REMARK   52  A    between atoms: _119  and  _122
REMARK   53  A    between atoms: _125  and  _127
REMARK   54  A    between atoms: _127  and  _128
REMARK   55  A    between atoms: _127  and  _130
REMARK   56  A    between atoms: _130  and  _131
REMARK   57  A    between atoms: _131  and  _132
REMARK   58  A    between atoms: _132  and  _133
REMARK   59  A    between atoms: _142  and  _144
REMARK   60  A    between atoms: _144  and  _145
REMARK   61  A    between atoms: _144  and  _147
REMARK   62  A    between atoms: _147  and  _148
REMARK   63  A    between atoms: _153  and  _155
REMARK   64  A    between atoms: _155  and  _156
REMARK   65  A    between atoms: _155  and  _158
REMARK   66  A    between atoms: _158  and  _159
REMARK   67  A    between atoms: _159  and  _160
REMARK   68  A    between atoms: _163  and  _165
REMARK   69  A    between atoms: _165  and  _166
REMARK   70  A    between atoms: _165  and  _168
REMARK   71  A    between atoms: _168  and  _169
REMARK   72  A    between atoms: _169  and  _170
REMARK   73  A    between atoms: _170  and  _171
REMARK   74  A    between atoms: _171  and  _172
REMARK   75  A    between atoms: _176  and  _178
REMARK   76  A    between atoms: _178  and  _179
REMARK   77  A    between atoms: _181  and  _183
REMARK   78  A    between atoms: _183  and  _184
REMARK   79  A    between atoms: _183  and  _186
REMARK   80  A    between atoms: _189  and  _191
REMARK   81  A    between atoms: _191  and  _192
REMARK   82  A    between atoms: _191  and  _194
REMARK   83  A    between atoms: _194  and  _195
REMARK   84  A    between atoms: _197  and  _199
REMARK   85  A    between atoms: _199  and  _200
REMARK   86  A    between atoms: _199  and  _202
REMARK   87  A    between atoms: _202  and  _203
REMARK   88  A    between atoms: _205  and  _207
REMARK   89  A    between atoms: _207  and  _208
REMARK   90  A    between atoms: _207  and  _210
REMARK   91  A    between atoms: _210  and  _211
REMARK   92  A    between atoms: _217  and  _219
REMARK   93  A    between atoms: _219  and  _220
REMARK   94  A    between atoms: _219  and  _222
REMARK   95  A    between atoms: _222  and  _223
REMARK   96  A    between atoms: _226  and  _228
REMARK   97  A    between atoms: _228  and  _229
REMARK   98  A    between atoms: _228  and  _231
REMARK   99  A    between atoms: _231  and  _232
REMARK  100  A    between atoms: _235  and  _237
REMARK  101  A    between atoms: _237  and  _238
REMARK  102  A    between atoms: _237  and  _240
REMARK  103  A    between atoms: _240  and  _241
REMARK  104  A    between atoms: _244  and  _246
REMARK  105  A    between atoms: _246  and  _247
REMARK  106  A    between atoms: _246  and  _249
REMARK  107  A    between atoms: _249  and  _250
REMARK  108  A    between atoms: _250  and  _251
REMARK  109  A    between atoms: _253  and  _255
REMARK  110  A    between atoms: _255  and  _256
REMARK  111  A    between atoms: _255  and  _258
REMARK  112  A    between atoms: _258  and  _259
REMARK  113  A    between atoms: _265  and  _267
REMARK  114  A    between atoms: _267  and  _268
REMARK  115  A    between atoms: _267  and  _270
REMARK  116  A    between atoms: _272  and  _274
REMARK  117  A    between atoms: _274  and  _275
REMARK  118  A    between atoms: _278  and  _280
REMARK  119  A    between atoms: _280  and  _281
REMARK  120  A    between atoms: _283  and  _285
REMARK  121  A    between atoms: _285  and  _286
REMARK  122  A    between atoms: _285  and  _288
REMARK  123  A    between atoms: _288  and  _289
REMARK  124  A    between atoms: _289  and  _290
REMARK  125  A    between atoms: _293  and  _295
REMARK  126  A    between atoms: _295  and  _296
REMARK  127  A    between atoms: _295  and  _298
REMARK  128  A    between atoms: _298  and  _299
REMARK  129  A    between atoms: _302  and  _304
REMARK  130  A    between atoms: _304  and  _305
REMARK  131  A    between atoms: _308  and  _310
REMARK  132  A    between atoms: _310  and  _311
REMARK  133  A    between atoms: _310  and  _313
REMARK  134  A    between atoms: _313  and  _314
REMARK  135  A    between atoms: _314  and  _437
REMARK  136  A    between atoms: _315  and  _317
REMARK  137  A    between atoms: _317  and  _318
REMARK  138  A    between atoms: _317  and  _320
REMARK  139  A    between atoms: _320  and  _321
REMARK  140  A    between atoms: _321  and  _322
REMARK  141  A    between atoms: _327  and  _329
REMARK  142  A    between atoms: _329  and  _330
REMARK  143  A    between atoms: _332  and  _334
REMARK  144  A    between atoms: _334  and  _335
REMARK  145  A    between atoms: _334  and  _337
REMARK  146  A    between atoms: _337  and  _338
REMARK  147  A    between atoms: _341  and  _343
REMARK  148  A    between atoms: _343  and  _344
REMARK  149  A    between atoms: _343  and  _346
REMARK  150  A    between atoms: _346  and  _347
REMARK  151  A    between atoms: _349  and  _351
REMARK  152  A    between atoms: _351  and  _352
REMARK  153  A    between atoms: _354  and  _356
REMARK  154  A    between atoms: _356  and  _357
REMARK  155  A    between atoms: _359  and  _361
REMARK  156  A    between atoms: _361  and  _362
REMARK  157  A    between atoms: _361  and  _364
REMARK  158  A    between atoms: _364  and  _365
REMARK  159  A    between atoms: _370  and  _372
REMARK  160  A    between atoms: _372  and  _373
REMARK  161  A    between atoms: _372  and  _375
REMARK  162  A    between atoms: _375  and  _376
REMARK  163  A    between atoms: _379  and  _381
REMARK  164  A    between atoms: _381  and  _382
REMARK  165  A    between atoms: _381  and  _384
REMARK  166  A    between atoms: _387  and  _389
REMARK  167  A    between atoms: _389  and  _390
REMARK  168  A    between atoms: _389  and  _392
REMARK  169  A    between atoms: _392  and  _393
REMARK  170  A    between atoms: _395  and  _397
REMARK  171  A    between atoms: _397  and  _398
REMARK  172  A    between atoms: _397  and  _400
REMARK  173  A    between atoms: _400  and  _401
REMARK  174  A    between atoms: _411  and  _413
REMARK  175  A    between atoms: _413  and  _414
REMARK  176  A    between atoms: _416  and  _418
REMARK  177  A    between atoms: _418  and  _419
REMARK  178  A    between atoms: _418  and  _421
REMARK  179  A    between atoms: _421  and  _422
REMARK  180  A    between atoms: _422  and  _423
REMARK  181  A    between atoms: _426  and  _428
REMARK  182  A    between atoms: _428  and  _429
REMARK  183  A    between atoms: _431  and  _433
REMARK  184  A    between atoms: _433  and  _434
REMARK  185  A    between atoms: _433  and  _436
REMARK  186  A    between atoms: _436  and  _437
REMARK  187  A    between atoms: _438  and  _440
REMARK  188  A    between atoms: _440  and  _441
REMARK  189  A    between atoms: _444  and  _446
REMARK  190  A    between atoms: _446  and  _447
REMARK  191  A    between atoms: _446  and  _449
REMARK  192  A    between atoms: _449  and  _450
REMARK  193  A    between atoms: _450  and  _451
REMARK  194  A    between atoms: _451  and  _452
REMARK  195  A    between atoms: _461  and  _463
REMARK  196  A    between atoms: _463  and  _464
REMARK  197  A    between atoms: _463  and  _466
REMARK  198  A    between atoms: _466  and  _467
REMARK  199  A    between atoms: _467  and  _468
REMARK  200  A    between atoms: _468  and  _469
REMARK  201  A    between atoms: _469  and  _470
REMARK  202  A    between atoms: _474  and  _476
REMARK  203  A    between atoms: _476  and  _477
REMARK  204  A    between atoms: _476  and  _479
REMARK  205  A    between atoms: _479  and  _480
REMARK  206  A    between atoms: _485  and  _486
REMARK  207  A    between atoms: _488  and  _490
REMARK  208  A    between atoms: _490  and  _491
REMARK  209  A    between atoms: _493  and  _495
REMARK  210  A    between atoms: _495  and  _496
REMARK  211  A    between atoms: _495  and  _498
REMARK  212  A    between atoms: _498  and  _499
REMARK  213  A    between atoms: _502  and  _504
REMARK  214  A    between atoms: _504  and  _505
REMARK  215  A    between atoms: _504  and  _507
REMARK  216  A    between atoms: _507  and  _508
REMARK  217  A    between atoms: _513  and  _514
REMARK  218  A    between atoms: _516  and  _518
REMARK  219  A    between atoms: _518  and  _519
REMARK  220  A    between atoms: _518  and  _521
REMARK  221  A    between atoms: _521  and  _522
REMARK                            x       y       z     vdW  Elec       q    Type
REMARK                         _______ _______ _______ _____ _____    ______ ____
ROOT
ATOM      1  O   HOH     1       6.407  66.556   4.851  0.00  0.00    +0.000 OA
ENDROOT
TORSDOF 0
REMARK  Name = ../refined-set-2016/2xbx/2xbx_pocket.pdb
REMARK  221 active torsions:
REMARK  status: ('A' for Active; 'I' for Inactive)
REMARK    1  A    between atoms: _1  and  _3
REMARK    2  A    between atoms: _3  and  _4
REMARK    3  A    between atoms: _3  and  _6
REMARK    4  A    between atoms: _9  and  _11
REMARK    5  A    between atoms: _11  and  _12
REMARK    6  A    between atoms: _11  and  _14
REMARK    7  A    between atoms: _14  and  _15
REMARK    8  A    between atoms: _20  and  _22
REMARK    9  A    between atoms: _22  and  _23
REMARK   10  A    between atoms: _22  and  _25
REMARK   11  A    between atoms: _25  and  _26
REMARK   12  A    between atoms: _26  and  _27
REMARK   13  A    between atoms: _32  and  _34
REMARK   14  A    between atoms: _34  and  _35
REMARK   15  A    between atoms: _34  and  _37
REMARK   16  A    between atoms: _37  and  _38
REMARK   17  A    between atoms: _44  and  _46
REMARK   18  A    between atoms: _46  and  _47
REMARK   19  A    between atoms: _46  and  _49
REMARK   20  A    between atoms: _49  and  _50
REMARK   21  A    between atoms: _53  and  _55
REMARK   22  A    between atoms: _55  and  _56
REMARK   23  A    between atoms: _55  and  _58
REMARK   24  A    between atoms: _58  and  _59
REMARK   25  A    between atoms: _59  and  _60
REMARK   26  A    between atoms: _60  and  _61
REMARK   27  A    between atoms: _61  and  _62
REMARK   28  A    between atoms: _66  and  _68
REMARK   29  A    between atoms: _68  and  _69
REMARK   30  A    between atoms: _68  and  _71
REMARK   31  A    between atoms: _71  and  _72
REMARK   32  A    between atoms: _72  and  _73
REMARK   33  A    between atoms: _76  and  _78
REMARK   34  A    between atoms: _78  and  _79
REMARK   35  A    between atoms: _78  and  _81
REMARK   36  A    between atoms: _81  and  _82
REMARK   37  A    between atoms: _85  and  _87
REMARK   38  A    between atoms: _87  and  _88
REMARK   39  A    between atoms: _87  and  _90
REMARK   40  A    between atoms: _90  and  _91
REMARK   41  A    between atoms: _96  and  _97
REMARK   42  A    between atoms: _99  and  _101
REMARK   43  A    between atoms: _101  and  _102
REMARK   44  A    between atoms: _101  and  _104
REMARK   45  A    between atoms: _104  and  _105
REMARK   46  A    between atoms: _108  and  _110
REMARK   47  A    between atoms: _110  and  _111
REMARK   48  A    between atoms: _110  and  _113
REMARK   49  A    between atoms: _113  and  _114
REMARK   50  A    between atoms: _117  and  _119
REMARK   51  A    between atoms: _119  and  _120
REMARK   52  A    between atoms: _119  and  _122
REMARK   53  A    between atoms: _125  and  _127
REMARK   54  A    between atoms: _127  and  _128
REMARK   55  A    between atoms: _127  and  _130
REMARK   56  A    between atoms: _130  and  _131
REMARK   57  A    between atoms: _131  and  _132
REMARK   58  A    between atoms: _132  and  _133
REMARK   59  A    between atoms: _142  and  _144
REMARK   60  A    between atoms: _144  and  _145
REMARK   61  A    between atoms: _144  and  _147
REMARK   62  A    between atoms: _147  and  _148
REMARK   63  A    between atoms: _153  and  _155
REMARK   64  A    between atoms: _155  and  _156
REMARK   65  A    between atoms: _155  and  _158
REMARK   66  A    between atoms: _158  and  _159
REMARK   67  A    between atoms: _159  and  _160
REMARK   68  A    between atoms: _163  and  _165
REMARK   69  A    between atoms: _165  and  _166
REMARK   70  A    between atoms: _165  and  _168
REMARK   71  A    between atoms: _168  and  _169
REMARK   72  A    between atoms: _169  and  _170
REMARK   73  A    between atoms: _170  and  _171
REMARK   74  A    between atoms: _171  and  _172
REMARK   75  A    between atoms: _176  and  _178
REMARK   76  A    between atoms: _178  and  _179
REMARK   77  A    between atoms: _181  and  _183
REMARK   78  A    between atoms: _183  and  _184
REMARK   79  A    between atoms: _183  and  _186
REMARK   80  A    between atoms: _189  and  _191
REMARK   81  A    between atoms: _191  and  _192
REMARK   82  A    between atoms: _191  and  _194
REMARK   83  A    between atoms: _194  and  _195
REMARK   84  A    between atoms: _197  and  _199
REMARK   85  A    between atoms: _199  and  _200
REMARK   86  A    between atoms: _199  and  _202
REMARK   87  A    between atoms: _202  and  _203
REMARK   88  A    between atoms: _205  and  _207
REMARK   89  A    between atoms: _207  and  _208
REMARK   90  A    between atoms: _207  and  _210
REMARK   91  A    between atoms: _210  and  _211
REMARK   92  A    between atoms: _217  and  _219
REMARK   93  A    between atoms: _219  and  _220
REMARK   94  A    between atoms: _219  and  _222
REMARK   95  A    between atoms: _222  and  _223
REMARK   96  A    between atoms: _226  and  _228
REMARK   97  A    between atoms: _228  and  _229
REMARK   98  A    between atoms: _228  and  _231
REMARK   99  A    between atoms: _231  and  _232
REMARK  100  A    between atoms: _235  and  _237
REMARK  101  A    between atoms: _237  and  _238
REMARK  102  A    between atoms: _237  and  _240
REMARK  103  A    between atoms: _240  and  _241
REMARK  104  A    between atoms: _244  and  _246
REMARK  105  A    between atoms: _246  and  _247
REMARK  106  A    between atoms: _246  and  _249
REMARK  107  A    between atoms: _249  and  _250
REMARK  108  A    between atoms: _250  and  _251
REMARK  109  A    between atoms: _253  and  _255
REMARK  110  A    between atoms: _255  and  _256
REMARK  111  A    between atoms: _255  and  _258
REMARK  112  A    between atoms: _258  and  _259
REMARK  113  A    between atoms: _265  and  _267
REMARK  114  A    between atoms: _267  and  _268
REMARK  115  A    between atoms: _267  and  _270
REMARK  116  A    between atoms: _272  and  _274
REMARK  117  A    between atoms: _274  and  _275
REMARK  118  A    between atoms: _278  and  _280
REMARK  119  A    between atoms: _280  and  _281
REMARK  120  A    between atoms: _283  and  _285
REMARK  121  A    between atoms: _285  and  _286
REMARK  122  A    between atoms: _285  and  _288
REMARK  123  A    between atoms: _288  and  _289
REMARK  124  A    between atoms: _289  and  _290
REMARK  125  A    between atoms: _293  and  _295
REMARK  126  A    between atoms: _295  and  _296
REMARK  127  A    between atoms: _295  and  _298
REMARK  128  A    between atoms: _298  and  _299
REMARK  129  A    between atoms: _302  and  _304
REMARK  130  A    between atoms: _304  and  _305
REMARK  131  A    between atoms: _308  and  _310
REMARK  132  A    between atoms: _310  and  _311
REMARK  133  A    between atoms: _310  and  _313
REMARK  134  A    between atoms: _313  and  _314
REMARK  135  A    between atoms: _314  and  _437
REMARK  136  A    between atoms: _315  and  _317
REMARK  137  A    between atoms: _317  and  _318
REMARK  138  A    between atoms: _317  and  _320
REMARK  139  A    between atoms: _320  and  _321
REMARK  140  A    between atoms: _321  and  _322
REMARK  141  A    between atoms: _327  and  _329
REMARK  142  A    between atoms: _329  and  _330
REMARK  143  A    between atoms: _332  and  _334
REMARK  144  A    between atoms: _334  and  _335
REMARK  145  A    between atoms: _334  and  _337
REMARK  146  A    between atoms: _337  and  _338
REMARK  147  A    between atoms: _341  and  _343
REMARK  148  A    between atoms: _343  and  _344
REMARK  149  A    between atoms: _343  and  _346
REMARK  150  A    between atoms: _346  and  _347
REMARK  151  A    between atoms: _349  and  _351
REMARK  152  A    between atoms: _351  and  _352
REMARK  153  A    between atoms: _354  and  _356
REMARK  154  A    between atoms: _356  and  _357
REMARK  155  A    between atoms: _359  and  _361
REMARK  156  A    between atoms: _361  and  _362
REMARK  157  A    between atoms: _361  and  _364
REMARK  158  A    between atoms: _364  and  _365
REMARK  159  A    between atoms: _370  and  _372
REMARK  160  A    between atoms: _372  and  _373
REMARK  161  A    between atoms: _372  and  _375
REMARK  162  A    between atoms: _375  and  _376
REMARK  163  A    between atoms: _379  and  _381
REMARK  164  A    between atoms: _381  and  _382
REMARK  165  A    between atoms: _381  and  _384
REMARK  166  A    between atoms: _387  and  _389
REMARK  167  A    between atoms: _389  and  _390
REMARK  168  A    between atoms: _389  and  _392
REMARK  169  A    between atoms: _392  and  _393
REMARK  170  A    between atoms: _395  and  _397
REMARK  171  A    between atoms: _397  and  _398
REMARK  172  A    between atoms: _397  and  _400
REMARK  173  A    between atoms: _400  and  _401
REMARK  174  A    between atoms: _411  and  _413
REMARK  175  A    between atoms: _413  and  _414
REMARK  176  A    between atoms: _416  and  _418
REMARK  177  A    between atoms: _418  and  _419
REMARK  178  A    between atoms: _418  and  _421
REMARK  179  A    between atoms: _421  and  _422
REMARK  180  A    between atoms: _422  and  _423
REMARK  181  A    between atoms: _426  and  _428
REMARK  182  A    between atoms: _428  and  _429
REMARK  183  A    between atoms: _431  and  _433
REMARK  184  A    between atoms: _433  and  _434
REMARK  185  A    between atoms: _433  and  _436
REMARK  186  A    between atoms: _436  and  _437
REMARK  187  A    between atoms: _438  and  _440
REMARK  188  A    between atoms: _440  and  _441
REMARK  189  A    between atoms: _444  and  _446
REMARK  190  A    between atoms: _446  and  _447
REMARK  191  A    between atoms: _446  and  _449
REMARK  192  A    between atoms: _449  and  _450
REMARK  193  A    between atoms: _450  and  _451
REMARK  194  A    between atoms: _451  and  _452
REMARK  195  A    between atoms: _461  and  _463
REMARK  196  A    between atoms: _463  and  _464
REMARK  197  A    between atoms: _463  and  _466
REMARK  198  A    between atoms: _466  and  _467
REMARK  199  A    between atoms: _467  and  _468
REMARK  200  A    between atoms: _468  and  _469
REMARK  201  A    between atoms: _469  and  _470
REMARK  202  A    between atoms: _474  and  _476
REMARK  203  A    between atoms: _476  and  _477
REMARK  204  A    between atoms: _476  and  _479
REMARK  205  A    between atoms: _479  and  _480
REMARK  206  A    between atoms: _485  and  _486
REMARK  207  A    between atoms: _488  and  _490
REMARK  208  A    between atoms: _490  and  _491
REMARK  209  A    between atoms: _493  and  _495
REMARK  210  A    between atoms: _495  and  _496
REMARK  211  A    between atoms: _495  and  _498
REMARK  212  A    between atoms: _498  and  _499
REMARK  213  A    between atoms: _502  and  _504
REMARK  214  A    between atoms: _504  and  _505
REMARK  215  A    between atoms: _504  and  _507
REMARK  216  A    between atoms: _507  and  _508
REMARK  217  A    between atoms: _513  and  _514
REMARK  218  A    between atoms: _516  and  _518
REMARK  219  A    between atoms: _518  and  _519
REMARK  220  A    between atoms: _518  and  _521
REMARK  221  A    between atoms: _521  and  _522
REMARK                            x       y       z     vdW  Elec       q    Type
REMARK                         _______ _______ _______ _____ _____    ______ ____
ROOT
ATOM      1  O   HOH     1       5.181  69.064   5.077  0.00  0.00    +0.000 OA
ENDROOT
TORSDOF 0
REMARK  Name = ../refined-set-2016/2xbx/2xbx_pocket.pdb
REMARK  221 active torsions:
REMARK  status: ('A' for Active; 'I' for Inactive)
REMARK    1  A    between atoms: _1  and  _3
REMARK    2  A    between atoms: _3  and  _4
REMARK    3  A    between atoms: _3  and  _6
REMARK    4  A    between atoms: _9  and  _11
REMARK    5  A    between atoms: _11  and  _12
REMARK    6  A    between atoms: _11  and  _14
REMARK    7  A    between atoms: _14  and  _15
REMARK    8  A    between atoms: _20  and  _22
REMARK    9  A    between atoms: _22  and  _23
REMARK   10  A    between atoms: _22  and  _25
REMARK   11  A    between atoms: _25  and  _26
REMARK   12  A    between atoms: _26  and  _27
REMARK   13  A    between atoms: _32  and  _34
REMARK   14  A    between atoms: _34  and  _35
REMARK   15  A    between atoms: _34  and  _37
REMARK   16  A    between atoms: _37  and  _38
REMARK   17  A    between atoms: _44  and  _46
REMARK   18  A    between atoms: _46  and  _47
REMARK   19  A    between atoms: _46  and  _49
REMARK   20  A    between atoms: _49  and  _50
REMARK   21  A    between atoms: _53  and  _55
REMARK   22  A    between atoms: _55  and  _56
REMARK   23  A    between atoms: _55  and  _58
REMARK   24  A    between atoms: _58  and  _59
REMARK   25  A    between atoms: _59  and  _60
REMARK   26  A    between atoms: _60  and  _61
REMARK   27  A    between atoms: _61  and  _62
REMARK   28  A    between atoms: _66  and  _68
REMARK   29  A    between atoms: _68  and  _69
REMARK   30  A    between atoms: _68  and  _71
REMARK   31  A    between atoms: _71  and  _72
REMARK   32  A    between atoms: _72  and  _73
REMARK   33  A    between atoms: _76  and  _78
REMARK   34  A    between atoms: _78  and  _79
REMARK   35  A    between atoms: _78  and  _81
REMARK   36  A    between atoms: _81  and  _82
REMARK   37  A    between atoms: _85  and  _87
REMARK   38  A    between atoms: _87  and  _88
REMARK   39  A    between atoms: _87  and  _90
REMARK   40  A    between atoms: _90  and  _91
REMARK   41  A    between atoms: _96  and  _97
REMARK   42  A    between atoms: _99  and  _101
REMARK   43  A    between atoms: _101  and  _102
REMARK   44  A    between atoms: _101  and  _104
REMARK   45  A    between atoms: _104  and  _105
REMARK   46  A    between atoms: _108  and  _110
REMARK   47  A    between atoms: _110  and  _111
REMARK   48  A    between atoms: _110  and  _113
REMARK   49  A    between atoms: _113  and  _114
REMARK   50  A    between atoms: _117  and  _119
REMARK   51  A    between atoms: _119  and  _120
REMARK   52  A    between atoms: _119  and  _122
REMARK   53  A    between atoms: _125  and  _127
REMARK   54  A    between atoms: _127  and  _128
REMARK   55  A    between atoms: _127  and  _130
REMARK   56  A    between atoms: _130  and  _131
REMARK   57  A    between atoms: _131  and  _132
REMARK   58  A    between atoms: _132  and  _133
REMARK   59  A    between atoms: _142  and  _144
REMARK   60  A    between atoms: _144  and  _145
REMARK   61  A    between atoms: _144  and  _147
REMARK   62  A    between atoms: _147  and  _148
REMARK   63  A    between atoms: _153  and  _155
REMARK   64  A    between atoms: _155  and  _156
REMARK   65  A    between atoms: _155  and  _158
REMARK   66  A    between atoms: _158  and  _159
REMARK   67  A    between atoms: _159  and  _160
REMARK   68  A    between atoms: _163  and  _165
REMARK   69  A    between atoms: _165  and  _166
REMARK   70  A    between atoms: _165  and  _168
REMARK   71  A    between atoms: _168  and  _169
REMARK   72  A    between atoms: _169  and  _170
REMARK   73  A    between atoms: _170  and  _171
REMARK   74  A    between atoms: _171  and  _172
REMARK   75  A    between atoms: _176  and  _178
REMARK   76  A    between atoms: _178  and  _179
REMARK   77  A    between atoms: _181  and  _183
REMARK   78  A    between atoms: _183  and  _184
REMARK   79  A    between atoms: _183  and  _186
REMARK   80  A    between atoms: _189  and  _191
REMARK   81  A    between atoms: _191  and  _192
REMARK   82  A    between atoms: _191  and  _194
REMARK   83  A    between atoms: _194  and  _195
REMARK   84  A    between atoms: _197  and  _199
REMARK   85  A    between atoms: _199  and  _200
REMARK   86  A    between atoms: _199  and  _202
REMARK   87  A    between atoms: _202  and  _203
REMARK   88  A    between atoms: _205  and  _207
REMARK   89  A    between atoms: _207  and  _208
REMARK   90  A    between atoms: _207  and  _210
REMARK   91  A    between atoms: _210  and  _211
REMARK   92  A    between atoms: _217  and  _219
REMARK   93  A    between atoms: _219  and  _220
REMARK   94  A    between atoms: _219  and  _222
REMARK   95  A    between atoms: _222  and  _223
REMARK   96  A    between atoms: _226  and  _228
REMARK   97  A    between atoms: _228  and  _229
REMARK   98  A    between atoms: _228  and  _231
REMARK   99  A    between atoms: _231  and  _232
REMARK  100  A    between atoms: _235  and  _237
REMARK  101  A    between atoms: _237  and  _238
REMARK  102  A    between atoms: _237  and  _240
REMARK  103  A    between atoms: _240  and  _241
REMARK  104  A    between atoms: _244  and  _246
REMARK  105  A    between atoms: _246  and  _247
REMARK  106  A    between atoms: _246  and  _249
REMARK  107  A    between atoms: _249  and  _250
REMARK  108  A    between atoms: _250  and  _251
REMARK  109  A    between atoms: _253  and  _255
REMARK  110  A    between atoms: _255  and  _256
REMARK  111  A    between atoms: _255  and  _258
REMARK  112  A    between atoms: _258  and  _259
REMARK  113  A    between atoms: _265  and  _267
REMARK  114  A    between atoms: _267  and  _268
REMARK  115  A    between atoms: _267  and  _270
REMARK  116  A    between atoms: _272  and  _274
REMARK  117  A    between atoms: _274  and  _275
REMARK  118  A    between atoms: _278  and  _280
REMARK  119  A    between atoms: _280  and  _281
REMARK  120  A    between atoms: _283  and  _285
REMARK  121  A    between atoms: _285  and  _286
REMARK  122  A    between atoms: _285  and  _288
REMARK  123  A    between atoms: _288  and  _289
REMARK  124  A    between atoms: _289  and  _290
REMARK  125  A    between atoms: _293  and  _295
REMARK  126  A    between atoms: _295  and  _296
REMARK  127  A    between atoms: _295  and  _298
REMARK  128  A    between atoms: _298  and  _299
REMARK  129  A    between atoms: _302  and  _304
REMARK  130  A    between atoms: _304  and  _305
REMARK  131  A    between atoms: _308  and  _310
REMARK  132  A    between atoms: _310  and  _311
REMARK  133  A    between atoms: _310  and  _313
REMARK  134  A    between atoms: _313  and  _314
REMARK  135  A    between atoms: _314  and  _437
REMARK  136  A    between atoms: _315  and  _317
REMARK  137  A    between atoms: _317  and  _318
REMARK  138  A    between atoms: _317  and  _320
REMARK  139  A    between atoms: _320  and  _321
REMARK  140  A    between atoms: _321  and  _322
REMARK  141  A    between atoms: _327  and  _329
REMARK  142  A    between atoms: _329  and  _330
REMARK  143  A    between atoms: _332  and  _334
REMARK  144  A    between atoms: _334  and  _335
REMARK  145  A    between atoms: _334  and  _337
REMARK  146  A    between atoms: _337  and  _338
REMARK  147  A    between atoms: _341  and  _343
REMARK  148  A    between atoms: _343  and  _344
REMARK  149  A    between atoms: _343  and  _346
REMARK  150  A    between atoms: _346  and  _347
REMARK  151  A    between atoms: _349  and  _351
REMARK  152  A    between atoms: _351  and  _352
REMARK  153  A    between atoms: _354  and  _356
REMARK  154  A    between atoms: _356  and  _357
REMARK  155  A    between atoms: _359  and  _361
REMARK  156  A    between atoms: _361  and  _362
REMARK  157  A    between atoms: _361  and  _364
REMARK  158  A    between atoms: _364  and  _365
REMARK  159  A    between atoms: _370  and  _372
REMARK  160  A    between atoms: _372  and  _373
REMARK  161  A    between atoms: _372  and  _375
REMARK  162  A    between atoms: _375  and  _376
REMARK  163  A    between atoms: _379  and  _381
REMARK  164  A    between atoms: _381  and  _382
REMARK  165  A    between atoms: _381  and  _384
REMARK  166  A    between atoms: _387  and  _389
REMARK  167  A    between atoms: _389  and  _390
REMARK  168  A    between atoms: _389  and  _392
REMARK  169  A    between atoms: _392  and  _393
REMARK  170  A    between atoms: _395  and  _397
REMARK  171  A    between atoms: _397  and  _398
REMARK  172  A    between atoms: _397  and  _400
REMARK  173  A    between atoms: _400  and  _401
REMARK  174  A    between atoms: _411  and  _413
REMARK  175  A    between atoms: _413  and  _414
REMARK  176  A    between atoms: _416  and  _418
REMARK  177  A    between atoms: _418  and  _419
REMARK  178  A    between atoms: _418  and  _421
REMARK  179  A    between atoms: _421  and  _422
REMARK  180  A    between atoms: _422  and  _423
REMARK  181  A    between atoms: _426  and  _428
REMARK  182  A    between atoms: _428  and  _429
REMARK  183  A    between atoms: _431  and  _433
REMARK  184  A    between atoms: _433  and  _434
REMARK  185  A    between atoms: _433  and  _436
REMARK  186  A    between atoms: _436  and  _437
REMARK  187  A    between atoms: _438  and  _440
REMARK  188  A    between atoms: _440  and  _441
REMARK  189  A    between atoms: _444  and  _446
REMARK  190  A    between atoms: _446  and  _447
REMARK  191  A    between atoms: _446  and  _449
REMARK  192  A    between atoms: _449  and  _450
REMARK  193  A    between atoms: _450  and  _451
REMARK  194  A    between atoms: _451  and  _452
REMARK  195  A    between atoms: _461  and  _463
REMARK  196  A    between atoms: _463  and  _464
REMARK  197  A    between atoms: _463  and  _466
REMARK  198  A    between atoms: _466  and  _467
REMARK  199  A    between atoms: _467  and  _468
REMARK  200  A    between atoms: _468  and  _469
REMARK  201  A    between atoms: _469  and  _470
REMARK  202  A    between atoms: _474  and  _476
REMARK  203  A    between atoms: _476  and  _477
REMARK  204  A    between atoms: _476  and  _479
REMARK  205  A    between atoms: _479  and  _480
REMARK  206  A    between atoms: _485  and  _486
REMARK  207  A    between atoms: _488  and  _490
REMARK  208  A    between atoms: _490  and  _491
REMARK  209  A    between atoms: _493  and  _495
REMARK  210  A    between atoms: _495  and  _496
REMARK  211  A    between atoms: _495  and  _498
REMARK  212  A    between atoms: _498  and  _499
REMARK  213  A    between atoms: _502  and  _504
REMARK  214  A    between atoms: _504  and  _505
REMARK  215  A    between atoms: _504  and  _507
REMARK  216  A    between atoms: _507  and  _508
REMARK  217  A    between atoms: _513  and  _514
REMARK  218  A    between atoms: _516  and  _518
REMARK  219  A    between atoms: _518  and  _519
REMARK  220  A    between atoms: _518  and  _521
REMARK  221  A    between atoms: _521  and  _522
REMARK                            x       y       z     vdW  Elec       q    Type
REMARK                         _______ _______ _______ _____ _____    ______ ____
ROOT
ATOM      1  O   HOH     1      13.376  66.031  13.373  0.00  0.00    +0.000 OA
ENDROOT
TORSDOF 0
REMARK  Name = ../refined-set-2016/2xbx/2xbx_pocket.pdb
REMARK  221 active torsions:
REMARK  status: ('A' for Active; 'I' for Inactive)
REMARK    1  A    between atoms: _1  and  _3
REMARK    2  A    between atoms: _3  and  _4
REMARK    3  A    between atoms: _3  and  _6
REMARK    4  A    between atoms: _9  and  _11
REMARK    5  A    between atoms: _11  and  _12
REMARK    6  A    between atoms: _11  and  _14
REMARK    7  A    between atoms: _14  and  _15
REMARK    8  A    between atoms: _20  and  _22
REMARK    9  A    between atoms: _22  and  _23
REMARK   10  A    between atoms: _22  and  _25
REMARK   11  A    between atoms: _25  and  _26
REMARK   12  A    between atoms: _26  and  _27
REMARK   13  A    between atoms: _32  and  _34
REMARK   14  A    between atoms: _34  and  _35
REMARK   15  A    between atoms: _34  and  _37
REMARK   16  A    between atoms: _37  and  _38
REMARK   17  A    between atoms: _44  and  _46
REMARK   18  A    between atoms: _46  and  _47
REMARK   19  A    between atoms: _46  and  _49
REMARK   20  A    between atoms: _49  and  _50
REMARK   21  A    between atoms: _53  and  _55
REMARK   22  A    between atoms: _55  and  _56
REMARK   23  A    between atoms: _55  and  _58
REMARK   24  A    between atoms: _58  and  _59
REMARK   25  A    between atoms: _59  and  _60
REMARK   26  A    between atoms: _60  and  _61
REMARK   27  A    between atoms: _61  and  _62
REMARK   28  A    between atoms: _66  and  _68
REMARK   29  A    between atoms: _68  and  _69
REMARK   30  A    between atoms: _68  and  _71
REMARK   31  A    between atoms: _71  and  _72
REMARK   32  A    between atoms: _72  and  _73
REMARK   33  A    between atoms: _76  and  _78
REMARK   34  A    between atoms: _78  and  _79
REMARK   35  A    between atoms: _78  and  _81
REMARK   36  A    between atoms: _81  and  _82
REMARK   37  A    between atoms: _85  and  _87
REMARK   38  A    between atoms: _87  and  _88
REMARK   39  A    between atoms: _87  and  _90
REMARK   40  A    between atoms: _90  and  _91
REMARK   41  A    between atoms: _96  and  _97
REMARK   42  A    between atoms: _99  and  _101
REMARK   43  A    between atoms: _101  and  _102
REMARK   44  A    between atoms: _101  and  _104
REMARK   45  A    between atoms: _104  and  _105
REMARK   46  A    between atoms: _108  and  _110
REMARK   47  A    between atoms: _110  and  _111
REMARK   48  A    between atoms: _110  and  _113
REMARK   49  A    between atoms: _113  and  _114
REMARK   50  A    between atoms: _117  and  _119
REMARK   51  A    between atoms: _119  and  _120
REMARK   52  A    between atoms: _119  and  _122
REMARK   53  A    between atoms: _125  and  _127
REMARK   54  A    between atoms: _127  and  _128
REMARK   55  A    between atoms: _127  and  _130
REMARK   56  A    between atoms: _130  and  _131
REMARK   57  A    between atoms: _131  and  _132
REMARK   58  A    between atoms: _132  and  _133
REMARK   59  A    between atoms: _142  and  _144
REMARK   60  A    between atoms: _144  and  _145
REMARK   61  A    between atoms: _144  and  _147
REMARK   62  A    between atoms: _147  and  _148
REMARK   63  A    between atoms: _153  and  _155
REMARK   64  A    between atoms: _155  and  _156
REMARK   65  A    between atoms: _155  and  _158
REMARK   66  A    between atoms: _158  and  _159
REMARK   67  A    between atoms: _159  and  _160
REMARK   68  A    between atoms: _163  and  _165
REMARK   69  A    between atoms: _165  and  _166
REMARK   70  A    between atoms: _165  and  _168
REMARK   71  A    between atoms: _168  and  _169
REMARK   72  A    between atoms: _169  and  _170
REMARK   73  A    between atoms: _170  and  _171
REMARK   74  A    between atoms: _171  and  _172
REMARK   75  A    between atoms: _176  and  _178
REMARK   76  A    between atoms: _178  and  _179
REMARK   77  A    between atoms: _181  and  _183
REMARK   78  A    between atoms: _183  and  _184
REMARK   79  A    between atoms: _183  and  _186
REMARK   80  A    between atoms: _189  and  _191
REMARK   81  A    between atoms: _191  and  _192
REMARK   82  A    between atoms: _191  and  _194
REMARK   83  A    between atoms: _194  and  _195
REMARK   84  A    between atoms: _197  and  _199
REMARK   85  A    between atoms: _199  and  _200
REMARK   86  A    between atoms: _199  and  _202
REMARK   87  A    between atoms: _202  and  _203
REMARK   88  A    between atoms: _205  and  _207
REMARK   89  A    between atoms: _207  and  _208
REMARK   90  A    between atoms: _207  and  _210
REMARK   91  A    between atoms: _210  and  _211
REMARK   92  A    between atoms: _217  and  _219
REMARK   93  A    between atoms: _219  and  _220
REMARK   94  A    between atoms: _219  and  _222
REMARK   95  A    between atoms: _222  and  _223
REMARK   96  A    between atoms: _226  and  _228
REMARK   97  A    between atoms: _228  and  _229
REMARK   98  A    between atoms: _228  and  _231
REMARK   99  A    between atoms: _231  and  _232
REMARK  100  A    between atoms: _235  and  _237
REMARK  101  A    between atoms: _237  and  _238
REMARK  102  A    between atoms: _237  and  _240
REMARK  103  A    between atoms: _240  and  _241
REMARK  104  A    between atoms: _244  and  _246
REMARK  105  A    between atoms: _246  and  _247
REMARK  106  A    between atoms: _246  and  _249
REMARK  107  A    between atoms: _249  and  _250
REMARK  108  A    between atoms: _250  and  _251
REMARK  109  A    between atoms: _253  and  _255
REMARK  110  A    between atoms: _255  and  _256
REMARK  111  A    between atoms: _255  and  _258
REMARK  112  A    between atoms: _258  and  _259
REMARK  113  A    between atoms: _265  and  _267
REMARK  114  A    between atoms: _267  and  _268
REMARK  115  A    between atoms: _267  and  _270
REMARK  116  A    between atoms: _272  and  _274
REMARK  117  A    between atoms: _274  and  _275
REMARK  118  A    between atoms: _278  and  _280
REMARK  119  A    between atoms: _280  and  _281
REMARK  120  A    between atoms: _283  and  _285
REMARK  121  A    between atoms: _285  and  _286
REMARK  122  A    between atoms: _285  and  _288
REMARK  123  A    between atoms: _288  and  _289
REMARK  124  A    between atoms: _289  and  _290
REMARK  125  A    between atoms: _293  and  _295
REMARK  126  A    between atoms: _295  and  _296
REMARK  127  A    between atoms: _295  and  _298
REMARK  128  A    between atoms: _298  and  _299
REMARK  129  A    between atoms: _302  and  _304
REMARK  130  A    between atoms: _304  and  _305
REMARK  131  A    between atoms: _308  and  _310
REMARK  132  A    between atoms: _310  and  _311
REMARK  133  A    between atoms: _310  and  _313
REMARK  134  A    between atoms: _313  and  _314
REMARK  135  A    between atoms: _314  and  _437
REMARK  136  A    between atoms: _315  and  _317
REMARK  137  A    between atoms: _317  and  _318
REMARK  138  A    between atoms: _317  and  _320
REMARK  139  A    between atoms: _320  and  _321
REMARK  140  A    between atoms: _321  and  _322
REMARK  141  A    between atoms: _327  and  _329
REMARK  142  A    between atoms: _329  and  _330
REMARK  143  A    between atoms: _332  and  _334
REMARK  144  A    between atoms: _334  and  _335
REMARK  145  A    between atoms: _334  and  _337
REMARK  146  A    between atoms: _337  and  _338
REMARK  147  A    between atoms: _341  and  _343
REMARK  148  A    between atoms: _343  and  _344
REMARK  149  A    between atoms: _343  and  _346
REMARK  150  A    between atoms: _346  and  _347
REMARK  151  A    between atoms: _349  and  _351
REMARK  152  A    between atoms: _351  and  _352
REMARK  153  A    between atoms: _354  and  _356
REMARK  154  A    between atoms: _356  and  _357
REMARK  155  A    between atoms: _359  and  _361
REMARK  156  A    between atoms: _361  and  _362
REMARK  157  A    between atoms: _361  and  _364
REMARK  158  A    between atoms: _364  and  _365
REMARK  159  A    between atoms: _370  and  _372
REMARK  160  A    between atoms: _372  and  _373
REMARK  161  A    between atoms: _372  and  _375
REMARK  162  A    between atoms: _375  and  _376
REMARK  163  A    between atoms: _379  and  _381
REMARK  164  A    between atoms: _381  and  _382
REMARK  165  A    between atoms: _381  and  _384
REMARK  166  A    between atoms: _387  and  _389
REMARK  167  A    between atoms: _389  and  _390
REMARK  168  A    between atoms: _389  and  _392
REMARK  169  A    between atoms: _392  and  _393
REMARK  170  A    between atoms: _395  and  _397
REMARK  171  A    between atoms: _397  and  _398
REMARK  172  A    between atoms: _397  and  _400
REMARK  173  A    between atoms: _400  and  _401
REMARK  174  A    between atoms: _411  and  _413
REMARK  175  A    between atoms: _413  and  _414
REMARK  176  A    between atoms: _416  and  _418
REMARK  177  A    between atoms: _418  and  _419
REMARK  178  A    between atoms: _418  and  _421
REMARK  179  A    between atoms: _421  and  _422
REMARK  180  A    between atoms: _422  and  _423
REMARK  181  A    between atoms: _426  and  _428
REMARK  182  A    between atoms: _428  and  _429
REMARK  183  A    between atoms: _431  and  _433
REMARK  184  A    between atoms: _433  and  _434
REMARK  185  A    between atoms: _433  and  _436
REMARK  186  A    between atoms: _436  and  _437
REMARK  187  A    between atoms: _438  and  _440
REMARK  188  A    between atoms: _440  and  _441
REMARK  189  A    between atoms: _444  and  _446
REMARK  190  A    between atoms: _446  and  _447
REMARK  191  A    between atoms: _446  and  _449
REMARK  192  A    between atoms: _449  and  _450
REMARK  193  A    between atoms: _450  and  _451
REMARK  194  A    between atoms: _451  and  _452
REMARK  195  A    between atoms: _461  and  _463
REMARK  196  A    between atoms: _463  and  _464
REMARK  197  A    between atoms: _463  and  _466
REMARK  198  A    between atoms: _466  and  _467
REMARK  199  A    between atoms: _467  and  _468
REMARK  200  A    between atoms: _468  and  _469
REMARK  201  A    between atoms: _469  and  _470
REMARK  202  A    between atoms: _474  and  _476
REMARK  203  A    between atoms: _476  and  _477
REMARK  204  A    between atoms: _476  and  _479
REMARK  205  A    between atoms: _479  and  _480
REMARK  206  A    between atoms: _485  and  _486
REMARK  207  A    between atoms: _488  and  _490
REMARK  208  A    between atoms: _490  and  _491
REMARK  209  A    between atoms: _493  and  _495
REMARK  210  A    between atoms: _495  and  _496
REMARK  211  A    between atoms: _495  and  _498
REMARK  212  A    between atoms: _498  and  _499
REMARK  213  A    between atoms: _502  and  _504
REMARK  214  A    between atoms: _504  and  _505
REMARK  215  A    between atoms: _504  and  _507
REMARK  216  A    between atoms: _507  and  _508
REMARK  217  A    between atoms: _513  and  _514
REMARK  218  A    between atoms: _516  and  _518
REMARK  219  A    between atoms: _518  and  _519
REMARK  220  A    between atoms: _518  and  _521
REMARK  221  A    between atoms: _521  and  _522
REMARK                            x       y       z     vdW  Elec       q    Type
REMARK                         _______ _______ _______ _____ _____    ______ ____
ROOT
ATOM      1  O   HOH     1       4.327  58.664  -0.899  0.00  0.00    +0.000 OA
ENDROOT
TORSDOF 0
REMARK  Name = ../refined-set-2016/2xbx/2xbx_pocket.pdb
REMARK  221 active torsions:
REMARK  status: ('A' for Active; 'I' for Inactive)
REMARK    1  A    between atoms: _1  and  _3
REMARK    2  A    between atoms: _3  and  _4
REMARK    3  A    between atoms: _3  and  _6
REMARK    4  A    between atoms: _9  and  _11
REMARK    5  A    between atoms: _11  and  _12
REMARK    6  A    between atoms: _11  and  _14
REMARK    7  A    between atoms: _14  and  _15
REMARK    8  A    between atoms: _20  and  _22
REMARK    9  A    between atoms: _22  and  _23
REMARK   10  A    between atoms: _22  and  _25
REMARK   11  A    between atoms: _25  and  _26
REMARK   12  A    between atoms: _26  and  _27
REMARK   13  A    between atoms: _32  and  _34
REMARK   14  A    between atoms: _34  and  _35
REMARK   15  A    between atoms: _34  and  _37
REMARK   16  A    between atoms: _37  and  _38
REMARK   17  A    between atoms: _44  and  _46
REMARK   18  A    between atoms: _46  and  _47
REMARK   19  A    between atoms: _46  and  _49
REMARK   20  A    between atoms: _49  and  _50
REMARK   21  A    between atoms: _53  and  _55
REMARK   22  A    between atoms: _55  and  _56
REMARK   23  A    between atoms: _55  and  _58
REMARK   24  A    between atoms: _58  and  _59
REMARK   25  A    between atoms: _59  and  _60
REMARK   26  A    between atoms: _60  and  _61
REMARK   27  A    between atoms: _61  and  _62
REMARK   28  A    between atoms: _66  and  _68
REMARK   29  A    between atoms: _68  and  _69
REMARK   30  A    between atoms: _68  and  _71
REMARK   31  A    between atoms: _71  and  _72
REMARK   32  A    between atoms: _72  and  _73
REMARK   33  A    between atoms: _76  and  _78
REMARK   34  A    between atoms: _78  and  _79
REMARK   35  A    between atoms: _78  and  _81
REMARK   36  A    between atoms: _81  and  _82
REMARK   37  A    between atoms: _85  and  _87
REMARK   38  A    between atoms: _87  and  _88
REMARK   39  A    between atoms: _87  and  _90
REMARK   40  A    between atoms: _90  and  _91
REMARK   41  A    between atoms: _96  and  _97
REMARK   42  A    between atoms: _99  and  _101
REMARK   43  A    between atoms: _101  and  _102
REMARK   44  A    between atoms: _101  and  _104
REMARK   45  A    between atoms: _104  and  _105
REMARK   46  A    between atoms: _108  and  _110
REMARK   47  A    between atoms: _110  and  _111
REMARK   48  A    between atoms: _110  and  _113
REMARK   49  A    between atoms: _113  and  _114
REMARK   50  A    between atoms: _117  and  _119
REMARK   51  A    between atoms: _119  and  _120
REMARK   52  A    between atoms: _119  and  _122
REMARK   53  A    between atoms: _125  and  _127
REMARK   54  A    between atoms: _127  and  _128
REMARK   55  A    between atoms: _127  and  _130
REMARK   56  A    between atoms: _130  and  _131
REMARK   57  A    between atoms: _131  and  _132
REMARK   58  A    between atoms: _132  and  _133
REMARK   59  A    between atoms: _142  and  _144
REMARK   60  A    between atoms: _144  and  _145
REMARK   61  A    between atoms: _144  and  _147
REMARK   62  A    between atoms: _147  and  _148
REMARK   63  A    between atoms: _153  and  _155
REMARK   64  A    between atoms: _155  and  _156
REMARK   65  A    between atoms: _155  and  _158
REMARK   66  A    between atoms: _158  and  _159
REMARK   67  A    between atoms: _159  and  _160
REMARK   68  A    between atoms: _163  and  _165
REMARK   69  A    between atoms: _165  and  _166
REMARK   70  A    between atoms: _165  and  _168
REMARK   71  A    between atoms: _168  and  _169
REMARK   72  A    between atoms: _169  and  _170
REMARK   73  A    between atoms: _170  and  _171
REMARK   74  A    between atoms: _171  and  _172
REMARK   75  A    between atoms: _176  and  _178
REMARK   76  A    between atoms: _178  and  _179
REMARK   77  A    between atoms: _181  and  _183
REMARK   78  A    between atoms: _183  and  _184
REMARK   79  A    between atoms: _183  and  _186
REMARK   80  A    between atoms: _189  and  _191
REMARK   81  A    between atoms: _191  and  _192
REMARK   82  A    between atoms: _191  and  _194
REMARK   83  A    between atoms: _194  and  _195
REMARK   84  A    between atoms: _197  and  _199
REMARK   85  A    between atoms: _199  and  _200
REMARK   86  A    between atoms: _199  and  _202
REMARK   87  A    between atoms: _202  and  _203
REMARK   88  A    between atoms: _205  and  _207
REMARK   89  A    between atoms: _207  and  _208
REMARK   90  A    between atoms: _207  and  _210
REMARK   91  A    between atoms: _210  and  _211
REMARK   92  A    between atoms: _217  and  _219
REMARK   93  A    between atoms: _219  and  _220
REMARK   94  A    between atoms: _219  and  _222
REMARK   95  A    between atoms: _222  and  _223
REMARK   96  A    between atoms: _226  and  _228
REMARK   97  A    between atoms: _228  and  _229
REMARK   98  A    between atoms: _228  and  _231
REMARK   99  A    between atoms: _231  and  _232
REMARK  100  A    between atoms: _235  and  _237
REMARK  101  A    between atoms: _237  and  _238
REMARK  102  A    between atoms: _237  and  _240
REMARK  103  A    between atoms: _240  and  _241
REMARK  104  A    between atoms: _244  and  _246
REMARK  105  A    between atoms: _246  and  _247
REMARK  106  A    between atoms: _246  and  _249
REMARK  107  A    between atoms: _249  and  _250
REMARK  108  A    between atoms: _250  and  _251
REMARK  109  A    between atoms: _253  and  _255
REMARK  110  A    between atoms: _255  and  _256
REMARK  111  A    between atoms: _255  and  _258
REMARK  112  A    between atoms: _258  and  _259
REMARK  113  A    between atoms: _265  and  _267
REMARK  114  A    between atoms: _267  and  _268
REMARK  115  A    between atoms: _267  and  _270
REMARK  116  A    between atoms: _272  and  _274
REMARK  117  A    between atoms: _274  and  _275
REMARK  118  A    between atoms: _278  and  _280
REMARK  119  A    between atoms: _280  and  _281
REMARK  120  A    between atoms: _283  and  _285
REMARK  121  A    between atoms: _285  and  _286
REMARK  122  A    between atoms: _285  and  _288
REMARK  123  A    between atoms: _288  and  _289
REMARK  124  A    between atoms: _289  and  _290
REMARK  125  A    between atoms: _293  and  _295
REMARK  126  A    between atoms: _295  and  _296
REMARK  127  A    between atoms: _295  and  _298
REMARK  128  A    between atoms: _298  and  _299
REMARK  129  A    between atoms: _302  and  _304
REMARK  130  A    between atoms: _304  and  _305
REMARK  131  A    between atoms: _308  and  _310
REMARK  132  A    between atoms: _310  and  _311
REMARK  133  A    between atoms: _310  and  _313
REMARK  134  A    between atoms: _313  and  _314
REMARK  135  A    between atoms: _314  and  _437
REMARK  136  A    between atoms: _315  and  _317
REMARK  137  A    between atoms: _317  and  _318
REMARK  138  A    between atoms: _317  and  _320
REMARK  139  A    between atoms: _320  and  _321
REMARK  140  A    between atoms: _321  and  _322
REMARK  141  A    between atoms: _327  and  _329
REMARK  142  A    between atoms: _329  and  _330
REMARK  143  A    between atoms: _332  and  _334
REMARK  144  A    between atoms: _334  and  _335
REMARK  145  A    between atoms: _334  and  _337
REMARK  146  A    between atoms: _337  and  _338
REMARK  147  A    between atoms: _341  and  _343
REMARK  148  A    between atoms: _343  and  _344
REMARK  149  A    between atoms: _343  and  _346
REMARK  150  A    between atoms: _346  and  _347
REMARK  151  A    between atoms: _349  and  _351
REMARK  152  A    between atoms: _351  and  _352
REMARK  153  A    between atoms: _354  and  _356
REMARK  154  A    between atoms: _356  and  _357
REMARK  155  A    between atoms: _359  and  _361
REMARK  156  A    between atoms: _361  and  _362
REMARK  157  A    between atoms: _361  and  _364
REMARK  158  A    between atoms: _364  and  _365
REMARK  159  A    between atoms: _370  and  _372
REMARK  160  A    between atoms: _372  and  _373
REMARK  161  A    between atoms: _372  and  _375
REMARK  162  A    between atoms: _375  and  _376
REMARK  163  A    between atoms: _379  and  _381
REMARK  164  A    between atoms: _381  and  _382
REMARK  165  A    between atoms: _381  and  _384
REMARK  166  A    between atoms: _387  and  _389
REMARK  167  A    between atoms: _389  and  _390
REMARK  168  A    between atoms: _389  and  _392
REMARK  169  A    between atoms: _392  and  _393
REMARK  170  A    between atoms: _395  and  _397
REMARK  171  A    between atoms: _397  and  _398
REMARK  172  A    between atoms: _397  and  _400
REMARK  173  A    between atoms: _400  and  _401
REMARK  174  A    between atoms: _411  and  _413
REMARK  175  A    between atoms: _413  and  _414
REMARK  176  A    between atoms: _416  and  _418
REMARK  177  A    between atoms: _418  and  _419
REMARK  178  A    between atoms: _418  and  _421
REMARK  179  A    between atoms: _421  and  _422
REMARK  180  A    between atoms: _422  and  _423
REMARK  181  A    between atoms: _426  and  _428
REMARK  182  A    between atoms: _428  and  _429
REMARK  183  A    between atoms: _431  and  _433
REMARK  184  A    between atoms: _433  and  _434
REMARK  185  A    between atoms: _433  and  _436
REMARK  186  A    between atoms: _436  and  _437
REMARK  187  A    between atoms: _438  and  _440
REMARK  188  A    between atoms: _440  and  _441
REMARK  189  A    between atoms: _444  and  _446
REMARK  190  A    between atoms: _446  and  _447
REMARK  191  A    between atoms: _446  and  _449
REMARK  192  A    between atoms: _449  and  _450
REMARK  193  A    between atoms: _450  and  _451
REMARK  194  A    between atoms: _451  and  _452
REMARK  195  A    between atoms: _461  and  _463
REMARK  196  A    between atoms: _463  and  _464
REMARK  197  A    between atoms: _463  and  _466
REMARK  198  A    between atoms: _466  and  _467
REMARK  199  A    between atoms: _467  and  _468
REMARK  200  A    between atoms: _468  and  _469
REMARK  201  A    between atoms: _469  and  _470
REMARK  202  A    between atoms: _474  and  _476
REMARK  203  A    between atoms: _476  and  _477
REMARK  204  A    between atoms: _476  and  _479
REMARK  205  A    between atoms: _479  and  _480
REMARK  206  A    between atoms: _485  and  _486
REMARK  207  A    between atoms: _488  and  _490
REMARK  208  A    between atoms: _490  and  _491
REMARK  209  A    between atoms: _493  and  _495
REMARK  210  A    between atoms: _495  and  _496
REMARK  211  A    between atoms: _495  and  _498
REMARK  212  A    between atoms: _498  and  _499
REMARK  213  A    between atoms: _502  and  _504
REMARK  214  A    between atoms: _504  and  _505
REMARK  215  A    between atoms: _504  and  _507
REMARK  216  A    between atoms: _507  and  _508
REMARK  217  A    between atoms: _513  and  _514
REMARK  218  A    between atoms: _516  and  _518
REMARK  219  A    between atoms: _518  and  _519
REMARK  220  A    between atoms: _518  and  _521
REMARK  221  A    between atoms: _521  and  _522
REMARK                            x       y       z     vdW  Elec       q    Type
REMARK                         _______ _______ _______ _____ _____    ______ ____
ROOT
ATOM      1  O   HOH     1       6.877  63.480  -0.690  0.00  0.00    +0.000 OA
ENDROOT
TORSDOF 0
