REMARK  Name = ../refined-set-2016/3bpc/3bpc_pocket.pdb
REMARK  153 active torsions:
REMARK  status: ('A' for Active; 'I' for Inactive)
REMARK    1  A    between atoms: _1  and  _3
REMARK    2  A    between atoms: _3  and  _4
REMARK    3  A    between atoms: _3  and  _6
REMARK    4  A    between atoms: _6  and  _7
REMARK    5  A    between atoms: _12  and  _14
REMARK    6  A    between atoms: _14  and  _15
REMARK    7  A    between atoms: _14  and  _17
REMARK    8  A    between atoms: _17  and  _18
REMARK    9  A    between atoms: _20  and  _22
REMARK   10  A    between atoms: _22  and  _23
REMARK   11  A    between atoms: _22  and  _25
REMARK   12  A    between atoms: _25  and  _26
REMARK   13  A    between atoms: _26  and  _27
REMARK   14  A    between atoms: _27  and  _28
REMARK   15  A    between atoms: _37  and  _39
REMARK   16  A    between atoms: _39  and  _40
REMARK   17  A    between atoms: _39  and  _42
REMARK   18  A    between atoms: _42  and  _43
REMARK   19  A    between atoms: _46  and  _48
REMARK   20  A    between atoms: _48  and  _49
REMARK   21  A    between atoms: _48  and  _51
REMARK   22  A    between atoms: _51  and  _52
REMARK   23  A    between atoms: _52  and  _53
REMARK   24  A    between atoms: _53  and  _54
REMARK   25  A    between atoms: _63  and  _65
REMARK   26  A    between atoms: _65  and  _66
REMARK   27  A    between atoms: _65  and  _68
REMARK   28  A    between atoms: _68  and  _69
REMARK   29  A    between atoms: _69  and  _70
REMARK   30  A    between atoms: _70  and  _71
REMARK   31  A    between atoms: _71  and  _72
REMARK   32  A    between atoms: _76  and  _78
REMARK   33  A    between atoms: _78  and  _79
REMARK   34  A    between atoms: _78  and  _81
REMARK   35  A    between atoms: _81  and  _82
REMARK   36  A    between atoms: _87  and  _88
REMARK   37  A    between atoms: _90  and  _92
REMARK   38  A    between atoms: _92  and  _93
REMARK   39  A    between atoms: _92  and  _95
REMARK   40  A    between atoms: _95  and  _96
REMARK   41  A    between atoms: _106  and  _108
REMARK   42  A    between atoms: _108  and  _109
REMARK   43  A    between atoms: _108  and  _111
REMARK   44  A    between atoms: _111  and  _112
REMARK   45  A    between atoms: _112  and  _113
REMARK   46  A    between atoms: _113  and  _114
REMARK   47  A    between atoms: _114  and  _115
REMARK   48  A    between atoms: _119  and  _121
REMARK   49  A    between atoms: _121  and  _122
REMARK   50  A    between atoms: _121  and  _124
REMARK   51  A    between atoms: _124  and  _125
REMARK   52  A    between atoms: _125  and  _126
REMARK   53  A    between atoms: _131  and  _133
REMARK   54  A    between atoms: _133  and  _134
REMARK   55  A    between atoms: _133  and  _136
REMARK   56  A    between atoms: _136  and  _137
REMARK   57  A    between atoms: _139  and  _141
REMARK   58  A    between atoms: _141  and  _142
REMARK   59  A    between atoms: _141  and  _144
REMARK   60  A    between atoms: _144  and  _145
REMARK   61  A    between atoms: _150  and  _151
REMARK   62  A    between atoms: _153  and  _155
REMARK   63  A    between atoms: _155  and  _156
REMARK   64  A    between atoms: _155  and  _158
REMARK   65  A    between atoms: _158  and  _159
REMARK   66  A    between atoms: _164  and  _166
REMARK   67  A    between atoms: _166  and  _167
REMARK   68  A    between atoms: _166  and  _169
REMARK   69  A    between atoms: _169  and  _170
REMARK   70  A    between atoms: _173  and  _175
REMARK   71  A    between atoms: _175  and  _176
REMARK   72  A    between atoms: _175  and  _178
REMARK   73  A    between atoms: _178  and  _179
REMARK   74  A    between atoms: _179  and  _180
REMARK   75  A    between atoms: _180  and  _181
REMARK   76  A    between atoms: _190  and  _192
REMARK   77  A    between atoms: _192  and  _193
REMARK   78  A    between atoms: _192  and  _195
REMARK   79  A    between atoms: _195  and  _196
REMARK   80  A    between atoms: _201  and  _202
REMARK   81  A    between atoms: _204  and  _206
REMARK   82  A    between atoms: _206  and  _207
REMARK   83  A    between atoms: _206  and  _209
REMARK   84  A    between atoms: _209  and  _210
REMARK   85  A    between atoms: _216  and  _218
REMARK   86  A    between atoms: _218  and  _219
REMARK   87  A    between atoms: _218  and  _221
REMARK   88  A    between atoms: _221  and  _222
REMARK   89  A    between atoms: _225  and  _227
REMARK   90  A    between atoms: _227  and  _228
REMARK   91  A    between atoms: _227  and  _230
REMARK   92  A    between atoms: _230  and  _231
REMARK   93  A    between atoms: _231  and  _232
REMARK   94  A    between atoms: _232  and  _233
REMARK   95  A    between atoms: _242  and  _244
REMARK   96  A    between atoms: _244  and  _245
REMARK   97  A    between atoms: _244  and  _247
REMARK   98  A    between atoms: _247  and  _248
REMARK   99  A    between atoms: _253  and  _255
REMARK  100  A    between atoms: _255  and  _256
REMARK  101  A    between atoms: _259  and  _261
REMARK  102  A    between atoms: _261  and  _262
REMARK  103  A    between atoms: _261  and  _264
REMARK  104  A    between atoms: _264  and  _265
REMARK  105  A    between atoms: _270  and  _272
REMARK  106  A    between atoms: _272  and  _273
REMARK  107  A    between atoms: _272  and  _275
REMARK  108  A    between atoms: _275  and  _276
REMARK  109  A    between atoms: _279  and  _281
REMARK  110  A    between atoms: _281  and  _282
REMARK  111  A    between atoms: _281  and  _284
REMARK  112  A    between atoms: _284  and  _285
REMARK  113  A    between atoms: _285  and  _286
REMARK  114  A    between atoms: _286  and  _288
REMARK  115  A    between atoms: _289  and  _291
REMARK  116  A    between atoms: _291  and  _292
REMARK  117  A    between atoms: _291  and  _294
REMARK  118  A    between atoms: _294  and  _295
REMARK  119  A    between atoms: _298  and  _300
REMARK  120  A    between atoms: _300  and  _301
REMARK  121  A    between atoms: _300  and  _303
REMARK  122  A    between atoms: _303  and  _304
REMARK  123  A    between atoms: _309  and  _311
REMARK  124  A    between atoms: _311  and  _312
REMARK  125  A    between atoms: _311  and  _314
REMARK  126  A    between atoms: _314  and  _315
REMARK  127  A    between atoms: _318  and  _320
REMARK  128  A    between atoms: _320  and  _321
REMARK  129  A    between atoms: _323  and  _325
REMARK  130  A    between atoms: _325  and  _326
REMARK  131  A    between atoms: _325  and  _328
REMARK  132  A    between atoms: _328  and  _329
REMARK  133  A    between atoms: _334  and  _335
REMARK  134  A    between atoms: _337  and  _339
REMARK  135  A    between atoms: _339  and  _340
REMARK  136  A    between atoms: _339  and  _342
REMARK  137  A    between atoms: _342  and  _343
REMARK  138  A    between atoms: _348  and  _349
REMARK  139  A    between atoms: _351  and  _353
REMARK  140  A    between atoms: _353  and  _354
REMARK  141  A    between atoms: _353  and  _356
REMARK  142  A    between atoms: _356  and  _357
REMARK  143  A    between atoms: _357  and  _358
REMARK  144  A    between atoms: _361  and  _363
REMARK  145  A    between atoms: _363  and  _364
REMARK  146  A    between atoms: _363  and  _366
REMARK  147  A    between atoms: _366  and  _367
REMARK  148  A    between atoms: _367  and  _368
REMARK  149  A    between atoms: _368  and  _369
REMARK  150  A    between atoms: _378  and  _380
REMARK  151  A    between atoms: _380  and  _381
REMARK  152  A    between atoms: _380  and  _383
REMARK  153  A    between atoms: _383  and  _384
REMARK                            x       y       z     vdW  Elec       q    Type
REMARK                         _______ _______ _______ _____ _____    ______ ____
ROOT
ATOM      1  C   ARG A   3      23.120  -9.313   7.617  0.00  0.00    +0.241 C 
ATOM      2  O   ARG A   3      22.392  -9.198   8.597  0.00  0.00    -0.273 OA
ATOM      3  N   THR A   4      22.663  -9.253   6.363  0.00  0.00    -0.295 N 
ATOM      4  H   THR A   4      23.333  -9.389   5.579  0.00  0.00    +0.150 HD
ENDROOT
BRANCH   3   5
ATOM      5  CA  THR A   4      21.255  -9.003   6.052  0.00  0.00    +0.176 C 
BRANCH   5   6
ATOM      6  C   THR A   4      20.557 -10.273   5.574  0.00  0.00    +0.243 C 
ATOM      7  O   THR A   4      19.348 -10.291   5.391  0.00  0.00    -0.273 OA
ATOM      8  N   ARG A   5      21.332 -11.333   5.359  0.00  0.00    -0.297 N 
ATOM      9  H   ARG A   5      22.361 -11.232   5.474  0.00  0.00    +0.150 HD
BRANCH   8  10
ATOM     10  CA  ARG A   5      20.788 -12.648   4.964  0.00  0.00    +0.149 C 
BRANCH  10  11
ATOM     11  C   ARG A   5      20.080 -12.547   3.590  0.00  0.00    +0.241 C 
ATOM     12  O   ARG A   5      19.142 -13.288   3.298  0.00  0.00    -0.273 OA
ATOM     13  N   LYS A   6      20.535 -11.601   2.764  0.00  0.00    -0.298 N 
ATOM     14  H   LYS A   6      21.275 -10.954   3.102  0.00  0.00    +0.150 HD
BRANCH  13  15
ATOM     15  CA  LYS A   6      20.021 -11.441   1.380  0.00  0.00    +0.137 C 
BRANCH  15  16
ATOM     16  C   LYS A   6      21.139 -11.666   0.381  0.00  0.00    +0.227 C 
ATOM     17  O   LYS A   6      22.315 -11.495   0.683  0.00  0.00    -0.286 OA
ENDBRANCH  15  16
BRANCH  15  18
ATOM     18  CB  LYS A   6      19.436 -10.032   1.150  0.00  0.00    +0.028 C 
BRANCH  18  19
ATOM     19  CG  LYS A   6      18.146  -9.781   1.944  0.00  0.00    -0.000 C 
BRANCH  19  20
ATOM     20  CD  LYS A   6      17.801  -8.338   1.866  0.00  0.00    -0.024 C 
BRANCH  20  21
ATOM     21  CE  LYS A   6      16.473  -8.014   2.569  0.00  0.00    -0.086 C 
BRANCH  21  22
ATOM     22  NZ  LYS A   6      15.241  -8.572   1.899  0.00  0.00    +0.380 N 
ATOM     23  HZ1 LYS A   6      14.398  -8.301   2.445  0.00  0.00    -0.089 HD
ATOM     24  HZ2 LYS A   6      15.310  -9.609   1.857  0.00  0.00    -0.089 HD
ATOM     25  HZ3 LYS A   6      15.169  -8.189   0.935  0.00  0.00    -0.089 HD
ENDBRANCH  21  22
ENDBRANCH  20  21
ENDBRANCH  19  20
ENDBRANCH  18  19
ENDBRANCH  15  18
ENDBRANCH  13  15
ENDBRANCH  10  11
BRANCH  10  26
ATOM     26  CB  ARG A   5      19.868 -13.180   6.084  0.00  0.00    +0.033 C 
BRANCH  26  27
ATOM     27  CG  ARG A   5      20.598 -13.822   7.258  0.00  0.00    +0.045 C 
BRANCH  27  28
ATOM     28  CD  ARG A   5      20.011 -13.481   8.654  0.00  0.00    +0.174 C 
BRANCH  28  29
ATOM     29  NE  ARG A   5      18.760 -12.719   8.647  0.00  0.00    -0.265 N 
ATOM     30  CZ  ARG A   5      18.631 -11.446   9.047  0.00  0.00    +0.342 C 
ATOM     31  NH2 ARG A   5      19.679 -10.757   9.500  0.00  0.00    -0.292 N 
ATOM     32 HH21 ARG A   5      19.560  -9.770   9.806  0.00  0.00    +0.255 HD
ATOM     33 HH22 ARG A   5      20.616 -11.206   9.547  0.00  0.00    +0.255 HD
ATOM     34  NH1 ARG A   5      17.442 -10.842   8.990  0.00  0.00    -0.292 N 
ATOM     35 HH11 ARG A   5      17.345  -9.854   9.301  0.00  0.00    +0.255 HD
ATOM     36 HH12 ARG A   5      16.613 -11.359   8.635  0.00  0.00    +0.255 HD
ATOM     37  HE  ARG A   5      17.905 -13.203   8.305  0.00  0.00    +0.259 HD
ENDBRANCH  28  29
ENDBRANCH  27  28
ENDBRANCH  26  27
ENDBRANCH  10  26
ENDBRANCH   8  10
ENDBRANCH   5   6
BRANCH   5  38
ATOM     38  CB  THR A   4      21.133  -7.963   4.942  0.00  0.00    +0.137 C 
ATOM     39  CG2 THR A   4      21.862  -6.651   5.345  0.00  0.00    +0.034 C 
BRANCH  38  40
ATOM     40  OG1 THR A   4      21.706  -8.503   3.743  0.00  0.00    -0.382 OA
ATOM     41  HG1 THR A   4      21.633  -7.837   3.014  0.00  0.00    +0.210 HD
ENDBRANCH  38  40
ENDBRANCH   5  38
ENDBRANCH   3   5
BRANCH   1  42
ATOM     42  CA  ARG A   3      24.620  -9.546   7.803  0.00  0.00    +0.149 C 
BRANCH  42  45
ATOM     43  C   SER A   2      24.842 -11.924   7.241  0.00  0.00    +0.243 C 
ATOM     44  O   SER A   2      24.093 -12.290   8.155  0.00  0.00    -0.273 OA
ATOM     45  N   ARG A   3      25.103 -10.649   6.978  0.00  0.00    -0.297 N 
ATOM     46  H   ARG A   3      25.680 -10.425   6.142  0.00  0.00    +0.150 HD
BRANCH  43  47
ATOM     47  CA  SER A   2      25.501 -12.941   6.309  0.00  0.00    +0.178 C 
BRANCH  47  49
ATOM     48  C   ASN A   1      24.963 -12.022   4.124  0.00  0.00    +0.239 C 
ATOM     49  N   SER A   2      25.897 -12.322   5.025  0.00  0.00    -0.295 N 
ATOM     50  H   SER A   2      26.898 -12.122   4.827  0.00  0.00    +0.150 HD
ATOM     51  O   ASN A   1      23.765 -12.131   4.358  0.00  0.00    -0.274 OA
BRANCH  48  52
ATOM     52  CA  ASN A   1      25.424 -11.537   2.735  0.00  0.00    +0.154 C 
BRANCH  52  53
ATOM     53  N   ASN A   1      24.832 -12.436   1.742  0.00  0.00    -0.238 NA
ATOM     54  H   ASN A   1      24.010 -12.091   1.207  0.00  0.00    +0.142 HD
ENDBRANCH  52  53
BRANCH  52  55
ATOM     55  CB  ASN A   1      24.896 -10.119   2.493  0.00  0.00    +0.111 C 
BRANCH  55  56
ATOM     56  CG  ASN A   1      25.477  -9.123   3.452  0.00  0.00    +0.221 C 
ATOM     57  OD1 ASN A   1      24.901  -8.853   4.524  0.00  0.00    -0.275 OA
ATOM     58  ND2 ASN A   1      26.651  -8.605   3.113  0.00  0.00    -0.329 N 
ATOM     59 HD21 ASN A   1      27.131  -7.942   3.754  0.00  0.00    +0.145 HD
ATOM     60 HD22 ASN A   1      27.091  -8.862   2.206  0.00  0.00    +0.145 HD
ENDBRANCH  55  56
ENDBRANCH  52  55
ENDBRANCH  48  52
ENDBRANCH  47  49
BRANCH  47  61
ATOM     61  CB  SER A   2      26.709 -13.617   6.979  0.00  0.00    +0.166 C 
BRANCH  61  62
ATOM     62  OG  SER A   2      27.772 -12.695   7.177  0.00  0.00    -0.380 OA
ATOM     63  H   SER A   2      28.059 -12.331   6.302  0.00  0.00    +0.211 HD
ENDBRANCH  61  62
ENDBRANCH  47  61
ENDBRANCH  43  47
ENDBRANCH  42  45
BRANCH  42  64
ATOM     64  CB  ARG A   3      25.437  -8.263   7.562  0.00  0.00    +0.033 C 
BRANCH  64  65
ATOM     65  CG  ARG A   3      25.278  -7.226   8.668  0.00  0.00    +0.045 C 
BRANCH  65  66
ATOM     66  CD  ARG A   3      25.986  -5.936   8.337  0.00  0.00    +0.174 C 
BRANCH  66  67
ATOM     67  NE  ARG A   3      25.315  -5.274   7.230  0.00  0.00    -0.265 N 
ATOM     68  CZ  ARG A   3      24.519  -4.215   7.351  0.00  0.00    +0.342 C 
ATOM     69  NH2 ARG A   3      24.308  -3.666   8.546  0.00  0.00    -0.292 N 
ATOM     70 HH21 ARG A   3      24.766  -4.065   9.390  0.00  0.00    +0.255 HD
ATOM     71 HH22 ARG A   3      23.685  -2.838   8.635  0.00  0.00    +0.255 HD
ATOM     72  NH1 ARG A   3      23.956  -3.694   6.267  0.00  0.00    -0.292 N 
ATOM     73 HH11 ARG A   3      23.332  -2.866   6.352  0.00  0.00    +0.255 HD
ATOM     74 HH12 ARG A   3      24.139  -4.114   5.333  0.00  0.00    +0.255 HD
ATOM     75  HE  ARG A   3      25.468  -5.656   6.275  0.00  0.00    +0.259 HD
ENDBRANCH  66  67
ENDBRANCH  65  66
ENDBRANCH  64  65
ENDBRANCH  42  64
ENDBRANCH   1  42
TORSDOF 31
REMARK  Name = ../refined-set-2016/3bpc/3bpc_pocket.pdb
REMARK  153 active torsions:
REMARK  status: ('A' for Active; 'I' for Inactive)
REMARK    1  A    between atoms: _1  and  _3
REMARK    2  A    between atoms: _3  and  _4
REMARK    3  A    between atoms: _3  and  _6
REMARK    4  A    between atoms: _6  and  _7
REMARK    5  A    between atoms: _12  and  _14
REMARK    6  A    between atoms: _14  and  _15
REMARK    7  A    between atoms: _14  and  _17
REMARK    8  A    between atoms: _17  and  _18
REMARK    9  A    between atoms: _20  and  _22
REMARK   10  A    between atoms: _22  and  _23
REMARK   11  A    between atoms: _22  and  _25
REMARK   12  A    between atoms: _25  and  _26
REMARK   13  A    between atoms: _26  and  _27
REMARK   14  A    between atoms: _27  and  _28
REMARK   15  A    between atoms: _37  and  _39
REMARK   16  A    between atoms: _39  and  _40
REMARK   17  A    between atoms: _39  and  _42
REMARK   18  A    between atoms: _42  and  _43
REMARK   19  A    between atoms: _46  and  _48
REMARK   20  A    between atoms: _48  and  _49
REMARK   21  A    between atoms: _48  and  _51
REMARK   22  A    between atoms: _51  and  _52
REMARK   23  A    between atoms: _52  and  _53
REMARK   24  A    between atoms: _53  and  _54
REMARK   25  A    between atoms: _63  and  _65
REMARK   26  A    between atoms: _65  and  _66
REMARK   27  A    between atoms: _65  and  _68
REMARK   28  A    between atoms: _68  and  _69
REMARK   29  A    between atoms: _69  and  _70
REMARK   30  A    between atoms: _70  and  _71
REMARK   31  A    between atoms: _71  and  _72
REMARK   32  A    between atoms: _76  and  _78
REMARK   33  A    between atoms: _78  and  _79
REMARK   34  A    between atoms: _78  and  _81
REMARK   35  A    between atoms: _81  and  _82
REMARK   36  A    between atoms: _87  and  _88
REMARK   37  A    between atoms: _90  and  _92
REMARK   38  A    between atoms: _92  and  _93
REMARK   39  A    between atoms: _92  and  _95
REMARK   40  A    between atoms: _95  and  _96
REMARK   41  A    between atoms: _106  and  _108
REMARK   42  A    between atoms: _108  and  _109
REMARK   43  A    between atoms: _108  and  _111
REMARK   44  A    between atoms: _111  and  _112
REMARK   45  A    between atoms: _112  and  _113
REMARK   46  A    between atoms: _113  and  _114
REMARK   47  A    between atoms: _114  and  _115
REMARK   48  A    between atoms: _119  and  _121
REMARK   49  A    between atoms: _121  and  _122
REMARK   50  A    between atoms: _121  and  _124
REMARK   51  A    between atoms: _124  and  _125
REMARK   52  A    between atoms: _125  and  _126
REMARK   53  A    between atoms: _131  and  _133
REMARK   54  A    between atoms: _133  and  _134
REMARK   55  A    between atoms: _133  and  _136
REMARK   56  A    between atoms: _136  and  _137
REMARK   57  A    between atoms: _139  and  _141
REMARK   58  A    between atoms: _141  and  _142
REMARK   59  A    between atoms: _141  and  _144
REMARK   60  A    between atoms: _144  and  _145
REMARK   61  A    between atoms: _150  and  _151
REMARK   62  A    between atoms: _153  and  _155
REMARK   63  A    between atoms: _155  and  _156
REMARK   64  A    between atoms: _155  and  _158
REMARK   65  A    between atoms: _158  and  _159
REMARK   66  A    between atoms: _164  and  _166
REMARK   67  A    between atoms: _166  and  _167
REMARK   68  A    between atoms: _166  and  _169
REMARK   69  A    between atoms: _169  and  _170
REMARK   70  A    between atoms: _173  and  _175
REMARK   71  A    between atoms: _175  and  _176
REMARK   72  A    between atoms: _175  and  _178
REMARK   73  A    between atoms: _178  and  _179
REMARK   74  A    between atoms: _179  and  _180
REMARK   75  A    between atoms: _180  and  _181
REMARK   76  A    between atoms: _190  and  _192
REMARK   77  A    between atoms: _192  and  _193
REMARK   78  A    between atoms: _192  and  _195
REMARK   79  A    between atoms: _195  and  _196
REMARK   80  A    between atoms: _201  and  _202
REMARK   81  A    between atoms: _204  and  _206
REMARK   82  A    between atoms: _206  and  _207
REMARK   83  A    between atoms: _206  and  _209
REMARK   84  A    between atoms: _209  and  _210
REMARK   85  A    between atoms: _216  and  _218
REMARK   86  A    between atoms: _218  and  _219
REMARK   87  A    between atoms: _218  and  _221
REMARK   88  A    between atoms: _221  and  _222
REMARK   89  A    between atoms: _225  and  _227
REMARK   90  A    between atoms: _227  and  _228
REMARK   91  A    between atoms: _227  and  _230
REMARK   92  A    between atoms: _230  and  _231
REMARK   93  A    between atoms: _231  and  _232
REMARK   94  A    between atoms: _232  and  _233
REMARK   95  A    between atoms: _242  and  _244
REMARK   96  A    between atoms: _244  and  _245
REMARK   97  A    between atoms: _244  and  _247
REMARK   98  A    between atoms: _247  and  _248
REMARK   99  A    between atoms: _253  and  _255
REMARK  100  A    between atoms: _255  and  _256
REMARK  101  A    between atoms: _259  and  _261
REMARK  102  A    between atoms: _261  and  _262
REMARK  103  A    between atoms: _261  and  _264
REMARK  104  A    between atoms: _264  and  _265
REMARK  105  A    between atoms: _270  and  _272
REMARK  106  A    between atoms: _272  and  _273
REMARK  107  A    between atoms: _272  and  _275
REMARK  108  A    between atoms: _275  and  _276
REMARK  109  A    between atoms: _279  and  _281
REMARK  110  A    between atoms: _281  and  _282
REMARK  111  A    between atoms: _281  and  _284
REMARK  112  A    between atoms: _284  and  _285
REMARK  113  A    between atoms: _285  and  _286
REMARK  114  A    between atoms: _286  and  _288
REMARK  115  A    between atoms: _289  and  _291
REMARK  116  A    between atoms: _291  and  _292
REMARK  117  A    between atoms: _291  and  _294
REMARK  118  A    between atoms: _294  and  _295
REMARK  119  A    between atoms: _298  and  _300
REMARK  120  A    between atoms: _300  and  _301
REMARK  121  A    between atoms: _300  and  _303
REMARK  122  A    between atoms: _303  and  _304
REMARK  123  A    between atoms: _309  and  _311
REMARK  124  A    between atoms: _311  and  _312
REMARK  125  A    between atoms: _311  and  _314
REMARK  126  A    between atoms: _314  and  _315
REMARK  127  A    between atoms: _318  and  _320
REMARK  128  A    between atoms: _320  and  _321
REMARK  129  A    between atoms: _323  and  _325
REMARK  130  A    between atoms: _325  and  _326
REMARK  131  A    between atoms: _325  and  _328
REMARK  132  A    between atoms: _328  and  _329
REMARK  133  A    between atoms: _334  and  _335
REMARK  134  A    between atoms: _337  and  _339
REMARK  135  A    between atoms: _339  and  _340
REMARK  136  A    between atoms: _339  and  _342
REMARK  137  A    between atoms: _342  and  _343
REMARK  138  A    between atoms: _348  and  _349
REMARK  139  A    between atoms: _351  and  _353
REMARK  140  A    between atoms: _353  and  _354
REMARK  141  A    between atoms: _353  and  _356
REMARK  142  A    between atoms: _356  and  _357
REMARK  143  A    between atoms: _357  and  _358
REMARK  144  A    between atoms: _361  and  _363
REMARK  145  A    between atoms: _363  and  _364
REMARK  146  A    between atoms: _363  and  _366
REMARK  147  A    between atoms: _366  and  _367
REMARK  148  A    between atoms: _367  and  _368
REMARK  149  A    between atoms: _368  and  _369
REMARK  150  A    between atoms: _378  and  _380
REMARK  151  A    between atoms: _380  and  _381
REMARK  152  A    between atoms: _380  and  _383
REMARK  153  A    between atoms: _383  and  _384
REMARK                            x       y       z     vdW  Elec       q    Type
REMARK                         _______ _______ _______ _____ _____    ______ ____
ROOT
ATOM      1  CG  TYR A   1      24.232  -8.015  -1.448  0.00  0.00    -0.020 A 
ATOM      2  CD2 TYR A   1      25.182  -7.257  -0.793  0.00  0.00    -0.001 A 
ATOM      3  CE2 TYR A   1      24.950  -6.781   0.521  0.00  0.00    +0.036 A 
ATOM      4  CZ  TYR A   1      23.756  -7.091   1.146  0.00  0.00    +0.134 A 
ATOM      5  CE1 TYR A   1      22.785  -7.835   0.487  0.00  0.00    +0.036 A 
ATOM      6  CD1 TYR A   1      23.027  -8.280  -0.799  0.00  0.00    -0.001 A 
ENDROOT
BRANCH   4   7
ATOM      7  OH  TYR A   1      23.520  -6.658   2.444  0.00  0.00    -0.506 OA
ATOM      8  HH  TYR A   1      24.303  -6.146   2.767  0.00  0.00    +0.292 HD
ENDBRANCH   4   7
BRANCH   1   9
ATOM      9  CB  TYR A   1      24.475  -8.520  -2.853  0.00  0.00    +0.051 C 
BRANCH   9  10
ATOM     10  CA  TYR A   1      23.245  -9.197  -3.444  0.00  0.00    +0.137 C 
BRANCH  10  11
ATOM     11  N   TYR A   1      23.007 -10.469  -2.786  0.00  0.00    -0.239 NA
ATOM     12  H   TYR A   1      23.813 -10.990  -2.387  0.00  0.00    +0.142 HD
ENDBRANCH  10  11
BRANCH  10  13
ATOM     13  C   TYR A   1      23.408  -9.419  -4.948  0.00  0.00    +0.224 C 
ATOM     14  O   TYR A   1      24.532  -9.352  -5.467  0.00  0.00    -0.287 OA
ENDBRANCH  10  13
ENDBRANCH   9  10
ENDBRANCH   1   9
TORSDOF 5
REMARK  Name = ../refined-set-2016/3bpc/3bpc_pocket.pdb
REMARK  153 active torsions:
REMARK  status: ('A' for Active; 'I' for Inactive)
REMARK    1  A    between atoms: _1  and  _3
REMARK    2  A    between atoms: _3  and  _4
REMARK    3  A    between atoms: _3  and  _6
REMARK    4  A    between atoms: _6  and  _7
REMARK    5  A    between atoms: _12  and  _14
REMARK    6  A    between atoms: _14  and  _15
REMARK    7  A    between atoms: _14  and  _17
REMARK    8  A    between atoms: _17  and  _18
REMARK    9  A    between atoms: _20  and  _22
REMARK   10  A    between atoms: _22  and  _23
REMARK   11  A    between atoms: _22  and  _25
REMARK   12  A    between atoms: _25  and  _26
REMARK   13  A    between atoms: _26  and  _27
REMARK   14  A    between atoms: _27  and  _28
REMARK   15  A    between atoms: _37  and  _39
REMARK   16  A    between atoms: _39  and  _40
REMARK   17  A    between atoms: _39  and  _42
REMARK   18  A    between atoms: _42  and  _43
REMARK   19  A    between atoms: _46  and  _48
REMARK   20  A    between atoms: _48  and  _49
REMARK   21  A    between atoms: _48  and  _51
REMARK   22  A    between atoms: _51  and  _52
REMARK   23  A    between atoms: _52  and  _53
REMARK   24  A    between atoms: _53  and  _54
REMARK   25  A    between atoms: _63  and  _65
REMARK   26  A    between atoms: _65  and  _66
REMARK   27  A    between atoms: _65  and  _68
REMARK   28  A    between atoms: _68  and  _69
REMARK   29  A    between atoms: _69  and  _70
REMARK   30  A    between atoms: _70  and  _71
REMARK   31  A    between atoms: _71  and  _72
REMARK   32  A    between atoms: _76  and  _78
REMARK   33  A    between atoms: _78  and  _79
REMARK   34  A    between atoms: _78  and  _81
REMARK   35  A    between atoms: _81  and  _82
REMARK   36  A    between atoms: _87  and  _88
REMARK   37  A    between atoms: _90  and  _92
REMARK   38  A    between atoms: _92  and  _93
REMARK   39  A    between atoms: _92  and  _95
REMARK   40  A    between atoms: _95  and  _96
REMARK   41  A    between atoms: _106  and  _108
REMARK   42  A    between atoms: _108  and  _109
REMARK   43  A    between atoms: _108  and  _111
REMARK   44  A    between atoms: _111  and  _112
REMARK   45  A    between atoms: _112  and  _113
REMARK   46  A    between atoms: _113  and  _114
REMARK   47  A    between atoms: _114  and  _115
REMARK   48  A    between atoms: _119  and  _121
REMARK   49  A    between atoms: _121  and  _122
REMARK   50  A    between atoms: _121  and  _124
REMARK   51  A    between atoms: _124  and  _125
REMARK   52  A    between atoms: _125  and  _126
REMARK   53  A    between atoms: _131  and  _133
REMARK   54  A    between atoms: _133  and  _134
REMARK   55  A    between atoms: _133  and  _136
REMARK   56  A    between atoms: _136  and  _137
REMARK   57  A    between atoms: _139  and  _141
REMARK   58  A    between atoms: _141  and  _142
REMARK   59  A    between atoms: _141  and  _144
REMARK   60  A    between atoms: _144  and  _145
REMARK   61  A    between atoms: _150  and  _151
REMARK   62  A    between atoms: _153  and  _155
REMARK   63  A    between atoms: _155  and  _156
REMARK   64  A    between atoms: _155  and  _158
REMARK   65  A    between atoms: _158  and  _159
REMARK   66  A    between atoms: _164  and  _166
REMARK   67  A    between atoms: _166  and  _167
REMARK   68  A    between atoms: _166  and  _169
REMARK   69  A    between atoms: _169  and  _170
REMARK   70  A    between atoms: _173  and  _175
REMARK   71  A    between atoms: _175  and  _176
REMARK   72  A    between atoms: _175  and  _178
REMARK   73  A    between atoms: _178  and  _179
REMARK   74  A    between atoms: _179  and  _180
REMARK   75  A    between atoms: _180  and  _181
REMARK   76  A    between atoms: _190  and  _192
REMARK   77  A    between atoms: _192  and  _193
REMARK   78  A    between atoms: _192  and  _195
REMARK   79  A    between atoms: _195  and  _196
REMARK   80  A    between atoms: _201  and  _202
REMARK   81  A    between atoms: _204  and  _206
REMARK   82  A    between atoms: _206  and  _207
REMARK   83  A    between atoms: _206  and  _209
REMARK   84  A    between atoms: _209  and  _210
REMARK   85  A    between atoms: _216  and  _218
REMARK   86  A    between atoms: _218  and  _219
REMARK   87  A    between atoms: _218  and  _221
REMARK   88  A    between atoms: _221  and  _222
REMARK   89  A    between atoms: _225  and  _227
REMARK   90  A    between atoms: _227  and  _228
REMARK   91  A    between atoms: _227  and  _230
REMARK   92  A    between atoms: _230  and  _231
REMARK   93  A    between atoms: _231  and  _232
REMARK   94  A    between atoms: _232  and  _233
REMARK   95  A    between atoms: _242  and  _244
REMARK   96  A    between atoms: _244  and  _245
REMARK   97  A    between atoms: _244  and  _247
REMARK   98  A    between atoms: _247  and  _248
REMARK   99  A    between atoms: _253  and  _255
REMARK  100  A    between atoms: _255  and  _256
REMARK  101  A    between atoms: _259  and  _261
REMARK  102  A    between atoms: _261  and  _262
REMARK  103  A    between atoms: _261  and  _264
REMARK  104  A    between atoms: _264  and  _265
REMARK  105  A    between atoms: _270  and  _272
REMARK  106  A    between atoms: _272  and  _273
REMARK  107  A    between atoms: _272  and  _275
REMARK  108  A    between atoms: _275  and  _276
REMARK  109  A    between atoms: _279  and  _281
REMARK  110  A    between atoms: _281  and  _282
REMARK  111  A    between atoms: _281  and  _284
REMARK  112  A    between atoms: _284  and  _285
REMARK  113  A    between atoms: _285  and  _286
REMARK  114  A    between atoms: _286  and  _288
REMARK  115  A    between atoms: _289  and  _291
REMARK  116  A    between atoms: _291  and  _292
REMARK  117  A    between atoms: _291  and  _294
REMARK  118  A    between atoms: _294  and  _295
REMARK  119  A    between atoms: _298  and  _300
REMARK  120  A    between atoms: _300  and  _301
REMARK  121  A    between atoms: _300  and  _303
REMARK  122  A    between atoms: _303  and  _304
REMARK  123  A    between atoms: _309  and  _311
REMARK  124  A    between atoms: _311  and  _312
REMARK  125  A    between atoms: _311  and  _314
REMARK  126  A    between atoms: _314  and  _315
REMARK  127  A    between atoms: _318  and  _320
REMARK  128  A    between atoms: _320  and  _321
REMARK  129  A    between atoms: _323  and  _325
REMARK  130  A    between atoms: _325  and  _326
REMARK  131  A    between atoms: _325  and  _328
REMARK  132  A    between atoms: _328  and  _329
REMARK  133  A    between atoms: _334  and  _335
REMARK  134  A    between atoms: _337  and  _339
REMARK  135  A    between atoms: _339  and  _340
REMARK  136  A    between atoms: _339  and  _342
REMARK  137  A    between atoms: _342  and  _343
REMARK  138  A    between atoms: _348  and  _349
REMARK  139  A    between atoms: _351  and  _353
REMARK  140  A    between atoms: _353  and  _354
REMARK  141  A    between atoms: _353  and  _356
REMARK  142  A    between atoms: _356  and  _357
REMARK  143  A    between atoms: _357  and  _358
REMARK  144  A    between atoms: _361  and  _363
REMARK  145  A    between atoms: _363  and  _364
REMARK  146  A    between atoms: _363  and  _366
REMARK  147  A    between atoms: _366  and  _367
REMARK  148  A    between atoms: _367  and  _368
REMARK  149  A    between atoms: _368  and  _369
REMARK  150  A    between atoms: _378  and  _380
REMARK  151  A    between atoms: _380  and  _381
REMARK  152  A    between atoms: _380  and  _383
REMARK  153  A    between atoms: _383  and  _384
REMARK                            x       y       z     vdW  Elec       q    Type
REMARK                         _______ _______ _______ _____ _____    ______ ____
ROOT
ATOM      1  CG  TRP A   1      17.839  -7.424  -1.781  0.00  0.00    -0.002 A 
ATOM      2  CD2 TRP A   1      17.058  -6.463  -1.091  0.00  0.00    +0.013 A 
ATOM      3  CE2 TRP A   1      17.945  -5.575  -0.432  0.00  0.00    +0.056 A 
ATOM      4  CZ2 TRP A   1      17.488  -4.523   0.361  0.00  0.00    +0.017 A 
ATOM      5  CH2 TRP A   1      16.124  -4.342   0.485  0.00  0.00    +0.001 A 
ATOM      6  CZ3 TRP A   1      15.220  -5.167  -0.115  0.00  0.00    +0.000 A 
ATOM      7  NE1 TRP A   1      19.230  -5.969  -0.720  0.00  0.00    -0.352 N 
ATOM      8  HE1 TRP A   1      20.103  -5.514  -0.384  0.00  0.00    +0.166 HD
ATOM      9  CE3 TRP A   1      15.680  -6.281  -0.934  0.00  0.00    +0.001 A 
ATOM     10  CD1 TRP A   1      19.147  -7.101  -1.553  0.00  0.00    +0.068 A 
ENDROOT
BRANCH   1  11
ATOM     11  CB  TRP A   1      17.263  -8.583  -2.607  0.00  0.00    +0.053 C 
BRANCH  11  12
ATOM     12  CA  TRP A   1      18.117  -9.043  -3.807  0.00  0.00    +0.137 C 
BRANCH  12  13
ATOM     13  N   TRP A   1      18.062  -8.066  -4.902  0.00  0.00    -0.239 NA
ATOM     14  H   TRP A   1      18.876  -7.439  -5.063  0.00  0.00    +0.142 HD
ENDBRANCH  12  13
BRANCH  12  15
ATOM     15  C   TRP A   1      17.628 -10.432  -4.276  0.00  0.00    +0.224 C 
ATOM     16  O   TRP A   1      16.882 -11.118  -3.561  0.00  0.00    -0.287 OA
ENDBRANCH  12  15
ENDBRANCH  11  12
ENDBRANCH   1  11
TORSDOF 4
REMARK  Name = ../refined-set-2016/3bpc/3bpc_pocket.pdb
REMARK  153 active torsions:
REMARK  status: ('A' for Active; 'I' for Inactive)
REMARK    1  A    between atoms: _1  and  _3
REMARK    2  A    between atoms: _3  and  _4
REMARK    3  A    between atoms: _3  and  _6
REMARK    4  A    between atoms: _6  and  _7
REMARK    5  A    between atoms: _12  and  _14
REMARK    6  A    between atoms: _14  and  _15
REMARK    7  A    between atoms: _14  and  _17
REMARK    8  A    between atoms: _17  and  _18
REMARK    9  A    between atoms: _20  and  _22
REMARK   10  A    between atoms: _22  and  _23
REMARK   11  A    between atoms: _22  and  _25
REMARK   12  A    between atoms: _25  and  _26
REMARK   13  A    between atoms: _26  and  _27
REMARK   14  A    between atoms: _27  and  _28
REMARK   15  A    between atoms: _37  and  _39
REMARK   16  A    between atoms: _39  and  _40
REMARK   17  A    between atoms: _39  and  _42
REMARK   18  A    between atoms: _42  and  _43
REMARK   19  A    between atoms: _46  and  _48
REMARK   20  A    between atoms: _48  and  _49
REMARK   21  A    between atoms: _48  and  _51
REMARK   22  A    between atoms: _51  and  _52
REMARK   23  A    between atoms: _52  and  _53
REMARK   24  A    between atoms: _53  and  _54
REMARK   25  A    between atoms: _63  and  _65
REMARK   26  A    between atoms: _65  and  _66
REMARK   27  A    between atoms: _65  and  _68
REMARK   28  A    between atoms: _68  and  _69
REMARK   29  A    between atoms: _69  and  _70
REMARK   30  A    between atoms: _70  and  _71
REMARK   31  A    between atoms: _71  and  _72
REMARK   32  A    between atoms: _76  and  _78
REMARK   33  A    between atoms: _78  and  _79
REMARK   34  A    between atoms: _78  and  _81
REMARK   35  A    between atoms: _81  and  _82
REMARK   36  A    between atoms: _87  and  _88
REMARK   37  A    between atoms: _90  and  _92
REMARK   38  A    between atoms: _92  and  _93
REMARK   39  A    between atoms: _92  and  _95
REMARK   40  A    between atoms: _95  and  _96
REMARK   41  A    between atoms: _106  and  _108
REMARK   42  A    between atoms: _108  and  _109
REMARK   43  A    between atoms: _108  and  _111
REMARK   44  A    between atoms: _111  and  _112
REMARK   45  A    between atoms: _112  and  _113
REMARK   46  A    between atoms: _113  and  _114
REMARK   47  A    between atoms: _114  and  _115
REMARK   48  A    between atoms: _119  and  _121
REMARK   49  A    between atoms: _121  and  _122
REMARK   50  A    between atoms: _121  and  _124
REMARK   51  A    between atoms: _124  and  _125
REMARK   52  A    between atoms: _125  and  _126
REMARK   53  A    between atoms: _131  and  _133
REMARK   54  A    between atoms: _133  and  _134
REMARK   55  A    between atoms: _133  and  _136
REMARK   56  A    between atoms: _136  and  _137
REMARK   57  A    between atoms: _139  and  _141
REMARK   58  A    between atoms: _141  and  _142
REMARK   59  A    between atoms: _141  and  _144
REMARK   60  A    between atoms: _144  and  _145
REMARK   61  A    between atoms: _150  and  _151
REMARK   62  A    between atoms: _153  and  _155
REMARK   63  A    between atoms: _155  and  _156
REMARK   64  A    between atoms: _155  and  _158
REMARK   65  A    between atoms: _158  and  _159
REMARK   66  A    between atoms: _164  and  _166
REMARK   67  A    between atoms: _166  and  _167
REMARK   68  A    between atoms: _166  and  _169
REMARK   69  A    between atoms: _169  and  _170
REMARK   70  A    between atoms: _173  and  _175
REMARK   71  A    between atoms: _175  and  _176
REMARK   72  A    between atoms: _175  and  _178
REMARK   73  A    between atoms: _178  and  _179
REMARK   74  A    between atoms: _179  and  _180
REMARK   75  A    between atoms: _180  and  _181
REMARK   76  A    between atoms: _190  and  _192
REMARK   77  A    between atoms: _192  and  _193
REMARK   78  A    between atoms: _192  and  _195
REMARK   79  A    between atoms: _195  and  _196
REMARK   80  A    between atoms: _201  and  _202
REMARK   81  A    between atoms: _204  and  _206
REMARK   82  A    between atoms: _206  and  _207
REMARK   83  A    between atoms: _206  and  _209
REMARK   84  A    between atoms: _209  and  _210
REMARK   85  A    between atoms: _216  and  _218
REMARK   86  A    between atoms: _218  and  _219
REMARK   87  A    between atoms: _218  and  _221
REMARK   88  A    between atoms: _221  and  _222
REMARK   89  A    between atoms: _225  and  _227
REMARK   90  A    between atoms: _227  and  _228
REMARK   91  A    between atoms: _227  and  _230
REMARK   92  A    between atoms: _230  and  _231
REMARK   93  A    between atoms: _231  and  _232
REMARK   94  A    between atoms: _232  and  _233
REMARK   95  A    between atoms: _242  and  _244
REMARK   96  A    between atoms: _244  and  _245
REMARK   97  A    between atoms: _244  and  _247
REMARK   98  A    between atoms: _247  and  _248
REMARK   99  A    between atoms: _253  and  _255
REMARK  100  A    between atoms: _255  and  _256
REMARK  101  A    between atoms: _259  and  _261
REMARK  102  A    between atoms: _261  and  _262
REMARK  103  A    between atoms: _261  and  _264
REMARK  104  A    between atoms: _264  and  _265
REMARK  105  A    between atoms: _270  and  _272
REMARK  106  A    between atoms: _272  and  _273
REMARK  107  A    between atoms: _272  and  _275
REMARK  108  A    between atoms: _275  and  _276
REMARK  109  A    between atoms: _279  and  _281
REMARK  110  A    between atoms: _281  and  _282
REMARK  111  A    between atoms: _281  and  _284
REMARK  112  A    between atoms: _284  and  _285
REMARK  113  A    between atoms: _285  and  _286
REMARK  114  A    between atoms: _286  and  _288
REMARK  115  A    between atoms: _289  and  _291
REMARK  116  A    between atoms: _291  and  _292
REMARK  117  A    between atoms: _291  and  _294
REMARK  118  A    between atoms: _294  and  _295
REMARK  119  A    between atoms: _298  and  _300
REMARK  120  A    between atoms: _300  and  _301
REMARK  121  A    between atoms: _300  and  _303
REMARK  122  A    between atoms: _303  and  _304
REMARK  123  A    between atoms: _309  and  _311
REMARK  124  A    between atoms: _311  and  _312
REMARK  125  A    between atoms: _311  and  _314
REMARK  126  A    between atoms: _314  and  _315
REMARK  127  A    between atoms: _318  and  _320
REMARK  128  A    between atoms: _320  and  _321
REMARK  129  A    between atoms: _323  and  _325
REMARK  130  A    between atoms: _325  and  _326
REMARK  131  A    between atoms: _325  and  _328
REMARK  132  A    between atoms: _328  and  _329
REMARK  133  A    between atoms: _334  and  _335
REMARK  134  A    between atoms: _337  and  _339
REMARK  135  A    between atoms: _339  and  _340
REMARK  136  A    between atoms: _339  and  _342
REMARK  137  A    between atoms: _342  and  _343
REMARK  138  A    between atoms: _348  and  _349
REMARK  139  A    between atoms: _351  and  _353
REMARK  140  A    between atoms: _353  and  _354
REMARK  141  A    between atoms: _353  and  _356
REMARK  142  A    between atoms: _356  and  _357
REMARK  143  A    between atoms: _357  and  _358
REMARK  144  A    between atoms: _361  and  _363
REMARK  145  A    between atoms: _363  and  _364
REMARK  146  A    between atoms: _363  and  _366
REMARK  147  A    between atoms: _366  and  _367
REMARK  148  A    between atoms: _367  and  _368
REMARK  149  A    between atoms: _368  and  _369
REMARK  150  A    between atoms: _378  and  _380
REMARK  151  A    between atoms: _380  and  _381
REMARK  152  A    between atoms: _380  and  _383
REMARK  153  A    between atoms: _383  and  _384
REMARK                            x       y       z     vdW  Elec       q    Type
REMARK                         _______ _______ _______ _____ _____    ______ ____
ROOT
ATOM      1  CA  TYR A   4      28.443  -8.291  -2.648  0.00  0.00    +0.153 C 
ENDROOT
BRANCH   1   2
ATOM      2  C   TYR A   4      29.877  -7.716  -2.362  0.00  0.00    +0.241 C 
ATOM      3  O   TYR A   4      30.246  -7.440  -1.198  0.00  0.00    -0.273 OA
ATOM      4  N   ASN A   5      30.718  -7.599  -3.398  0.00  0.00    -0.297 N 
ATOM      5  H   ASN A   5      30.418  -7.931  -4.337  0.00  0.00    +0.150 HD
BRANCH   4   6
ATOM      6  CA  ASN A   5      32.047  -7.015  -3.239  0.00  0.00    +0.158 C 
BRANCH   6   7
ATOM      7  C   ASN A   5      32.298  -6.160  -4.463  0.00  0.00    +0.241 C 
ATOM      8  N   LEU A   6      32.237  -4.825  -4.284  0.00  0.00    -0.297 N 
ATOM      9  H   LEU A   6      32.245  -4.449  -3.314  0.00  0.00    +0.150 HD
ATOM     10  O   ASN A   5      32.541  -6.723  -5.566  0.00  0.00    -0.273 OA
BRANCH   8  11
ATOM     11  CA  LEU A   6      32.158  -3.868  -5.422  0.00  0.00    +0.149 C 
BRANCH  11  12
ATOM     12  C   LEU A   6      31.002  -4.339  -6.322  0.00  0.00    +0.241 C 
ATOM     13  O   LEU A   6      29.990  -4.780  -5.790  0.00  0.00    -0.273 OA
ATOM     14  N   ARG A   7      31.100  -4.211  -7.660  0.00  0.00    -0.298 N 
ATOM     15  H   ARG A   7      31.909  -3.714  -8.084  0.00  0.00    +0.150 HD
BRANCH  14  16
ATOM     16  CA  ARG A   7      30.054  -4.780  -8.507  0.00  0.00    +0.137 C 
BRANCH  16  17
ATOM     17  C   ARG A   7      30.692  -5.395  -9.751  0.00  0.00    +0.227 C 
ATOM     18  O   ARG A   7      31.795  -4.992 -10.145  0.00  0.00    -0.286 OA
ENDBRANCH  16  17
BRANCH  16  19
ATOM     19  CB  ARG A   7      29.019  -3.711  -8.930  0.00  0.00    +0.031 C 
BRANCH  19  20
ATOM     20  CG  ARG A   7      28.156  -3.074  -7.789  0.00  0.00    +0.045 C 
BRANCH  20  21
ATOM     21  CD  ARG A   7      28.922  -1.883  -7.129  0.00  0.00    +0.174 C 
BRANCH  21  22
ATOM     22  NE  ARG A   7      28.089  -1.186  -6.145  0.00  0.00    -0.265 N 
ATOM     23  CZ  ARG A   7      27.931  -1.566  -4.880  0.00  0.00    +0.342 C 
ATOM     24  NH2 ARG A   7      27.209  -0.819  -4.064  0.00  0.00    -0.292 N 
ATOM     25 HH21 ARG A   7      27.079  -1.107  -3.073  0.00  0.00    +0.255 HD
ATOM     26 HH22 ARG A   7      26.770   0.057  -4.412  0.00  0.00    +0.255 HD
ATOM     27  NH1 ARG A   7      28.508  -2.671  -4.410  0.00  0.00    -0.292 N 
ATOM     28 HH11 ARG A   7      28.370  -2.948  -3.417  0.00  0.00    +0.255 HD
ATOM     29 HH12 ARG A   7      29.097  -3.257  -5.036  0.00  0.00    +0.255 HD
ATOM     30  HE  ARG A   7      27.585  -0.332  -6.459  0.00  0.00    +0.259 HD
ENDBRANCH  21  22
ENDBRANCH  20  21
ENDBRANCH  19  20
ENDBRANCH  16  19
ENDBRANCH  14  16
ENDBRANCH  11  12
BRANCH  11  31
ATOM     31  CB  LEU A   6      33.527  -3.632  -6.126  0.00  0.00    +0.029 C 
BRANCH  31  32
ATOM     32  CG  LEU A   6      34.692  -3.223  -5.163  0.00  0.00    +0.002 C 
ATOM     33  CD2 LEU A   6      34.230  -1.937  -4.387  0.00  0.00    +0.000 C 
ATOM     34  CD1 LEU A   6      36.031  -3.007  -5.904  0.00  0.00    +0.000 C 
ENDBRANCH  31  32
ENDBRANCH  11  31
ENDBRANCH   8  11
ENDBRANCH   6   7
BRANCH   6  35
ATOM     35  CB  ASN A   5      33.091  -8.152  -3.154  0.00  0.00    +0.114 C 
BRANCH  35  36
ATOM     36  CG  ASN A   5      34.495  -7.672  -2.842  0.00  0.00    +0.222 C 
ATOM     37  OD1 ASN A   5      35.263  -8.400  -2.174  0.00  0.00    -0.275 OA
ATOM     38  ND2 ASN A   5      34.872  -6.505  -3.361  0.00  0.00    -0.329 N 
ATOM     39 HD21 ASN A   5      35.843  -6.162  -3.218  0.00  0.00    +0.145 HD
ATOM     40 HD22 ASN A   5      34.195  -5.937  -3.909  0.00  0.00    +0.145 HD
ENDBRANCH  35  36
ENDBRANCH   6  35
ENDBRANCH   4   6
ENDBRANCH   1   2
BRANCH   1  43
ATOM     41  C   SER A   3      27.521  -6.521  -4.045  0.00  0.00    +0.243 C 
ATOM     42  O   SER A   3      27.554  -5.670  -3.148  0.00  0.00    -0.273 OA
ATOM     43  N   TYR A   4      27.803  -7.789  -3.871  0.00  0.00    -0.297 N 
ATOM     44  H   TYR A   4      27.565  -8.464  -4.626  0.00  0.00    +0.150 HD
BRANCH  41  45
ATOM     45  CA  SER A   3      27.080  -6.163  -5.473  0.00  0.00    +0.178 C 
BRANCH  45  47
ATOM     46  C   GLN A   2      26.994  -7.595  -7.426  0.00  0.00    +0.241 C 
ATOM     47  N   SER A   3      26.616  -7.357  -6.168  0.00  0.00    -0.295 N 
ATOM     48  H   SER A   3      25.987  -8.027  -5.681  0.00  0.00    +0.150 HD
ATOM     49  O   GLN A   2      27.645  -6.789  -8.089  0.00  0.00    -0.273 OA
BRANCH  46  50
ATOM     50  CA  GLN A   2      26.599  -8.928  -7.999  0.00  0.00    +0.149 C 
BRANCH  50  53
ATOM     51  C   LYS A   1      25.161  -8.467  -9.928  0.00  0.00    +0.238 C 
ATOM     52  O   LYS A   1      24.166  -8.268  -9.212  0.00  0.00    -0.274 OA
ATOM     53  N   GLN A   2      26.357  -8.796  -9.454  0.00  0.00    -0.297 N 
ATOM     54  H   GLN A   2      27.140  -8.964 -10.118  0.00  0.00    +0.150 HD
BRANCH  51  55
ATOM     55  CA  LYS A   1      25.070  -8.255 -11.440  0.00  0.00    +0.145 C 
BRANCH  55  56
ATOM     56  N   LYS A   1      24.044  -9.093 -11.991  0.00  0.00    -0.238 NA
ATOM     57  H   LYS A   1      23.259  -9.411 -11.387  0.00  0.00    +0.142 HD
ENDBRANCH  55  56
BRANCH  55  58
ATOM     58  CB  LYS A   1      24.742  -6.788 -11.694  0.00  0.00    +0.026 C 
BRANCH  58  59
ATOM     59  CG  LYS A   1      25.902  -5.802 -11.244  0.00  0.00    -0.000 C 
BRANCH  59  60
ATOM     60  CD  LYS A   1      25.340  -4.450 -10.750  0.00  0.00    -0.024 C 
BRANCH  60  61
ATOM     61  CE  LYS A   1      24.434  -4.668  -9.496  0.00  0.00    -0.086 C 
BRANCH  61  62
ATOM     62  NZ  LYS A   1      23.447  -3.589  -9.274  0.00  0.00    +0.380 N 
ATOM     63  HZ1 LYS A   1      22.885  -3.804  -8.426  0.00  0.00    -0.089 HD
ATOM     64  HZ2 LYS A   1      23.946  -2.686  -9.140  0.00  0.00    -0.089 HD
ATOM     65  HZ3 LYS A   1      22.819  -3.520 -10.100  0.00  0.00    -0.089 HD
ENDBRANCH  61  62
ENDBRANCH  60  61
ENDBRANCH  59  60
ENDBRANCH  58  59
ENDBRANCH  55  58
ENDBRANCH  51  55
ENDBRANCH  50  53
BRANCH  50  66
ATOM     66  CB  GLN A   2      27.689  -9.967  -7.690  0.00  0.00    +0.039 C 
BRANCH  66  67
ATOM     67  CG  GLN A   2      29.163  -9.608  -8.132  0.00  0.00    +0.087 C 
BRANCH  67  68
ATOM     68  CD  GLN A   2      29.944  -8.766  -7.115  0.00  0.00    +0.219 C 
ATOM     69  OE1 GLN A   2      29.566  -8.672  -5.928  0.00  0.00    -0.275 OA
ATOM     70  NE2 GLN A   2      31.016  -8.145  -7.568  0.00  0.00    -0.329 N 
ATOM     71 HE21 GLN A   2      31.581  -7.550  -6.929  0.00  0.00    +0.145 HD
ATOM     72 HE22 GLN A   2      31.296  -8.250  -8.564  0.00  0.00    +0.145 HD
ENDBRANCH  67  68
ENDBRANCH  66  67
ENDBRANCH  50  66
ENDBRANCH  46  50
ENDBRANCH  45  47
BRANCH  45  73
ATOM     73  CB  SER A   3      26.024  -5.052  -5.407  0.00  0.00    +0.166 C 
BRANCH  73  74
ATOM     74  OG  SER A   3      24.822  -5.512  -4.788  0.00  0.00    -0.380 OA
ATOM     75  H   SER A   3      24.452  -6.268  -5.310  0.00  0.00    +0.211 HD
ENDBRANCH  73  74
ENDBRANCH  45  73
ENDBRANCH  41  45
ENDBRANCH   1  43
BRANCH   1  76
ATOM     76  CB  TYR A   4      28.522  -9.789  -2.802  0.00  0.00    +0.055 C 
BRANCH  76  77
ATOM     77  CG  TYR A   4      28.979 -10.529  -1.558  0.00  0.00    -0.020 A 
ATOM     78  CD2 TYR A   4      28.049 -11.091  -0.686  0.00  0.00    -0.001 A 
ATOM     79  CE2 TYR A   4      28.484 -11.819   0.455  0.00  0.00    +0.036 A 
ATOM     80  CZ  TYR A   4      29.853 -11.954   0.703  0.00  0.00    +0.134 A 
ATOM     81  CE1 TYR A   4      30.785 -11.380  -0.149  0.00  0.00    +0.036 A 
ATOM     82  CD1 TYR A   4      30.331 -10.693  -1.296  0.00  0.00    -0.001 A 
BRANCH  80  83
ATOM     83  OH  TYR A   4      30.308 -12.643   1.813  0.00  0.00    -0.506 OA
ATOM     84  HH  TYR A   4      30.833 -12.031   2.388  0.00  0.00    +0.292 HD
ENDBRANCH  80  83
ENDBRANCH  76  77
ENDBRANCH   1  76
TORSDOF 35
REMARK  Name = ../refined-set-2016/3bpc/3bpc_pocket.pdb
REMARK  153 active torsions:
REMARK  status: ('A' for Active; 'I' for Inactive)
REMARK    1  A    between atoms: _1  and  _3
REMARK    2  A    between atoms: _3  and  _4
REMARK    3  A    between atoms: _3  and  _6
REMARK    4  A    between atoms: _6  and  _7
REMARK    5  A    between atoms: _12  and  _14
REMARK    6  A    between atoms: _14  and  _15
REMARK    7  A    between atoms: _14  and  _17
REMARK    8  A    between atoms: _17  and  _18
REMARK    9  A    between atoms: _20  and  _22
REMARK   10  A    between atoms: _22  and  _23
REMARK   11  A    between atoms: _22  and  _25
REMARK   12  A    between atoms: _25  and  _26
REMARK   13  A    between atoms: _26  and  _27
REMARK   14  A    between atoms: _27  and  _28
REMARK   15  A    between atoms: _37  and  _39
REMARK   16  A    between atoms: _39  and  _40
REMARK   17  A    between atoms: _39  and  _42
REMARK   18  A    between atoms: _42  and  _43
REMARK   19  A    between atoms: _46  and  _48
REMARK   20  A    between atoms: _48  and  _49
REMARK   21  A    between atoms: _48  and  _51
REMARK   22  A    between atoms: _51  and  _52
REMARK   23  A    between atoms: _52  and  _53
REMARK   24  A    between atoms: _53  and  _54
REMARK   25  A    between atoms: _63  and  _65
REMARK   26  A    between atoms: _65  and  _66
REMARK   27  A    between atoms: _65  and  _68
REMARK   28  A    between atoms: _68  and  _69
REMARK   29  A    between atoms: _69  and  _70
REMARK   30  A    between atoms: _70  and  _71
REMARK   31  A    between atoms: _71  and  _72
REMARK   32  A    between atoms: _76  and  _78
REMARK   33  A    between atoms: _78  and  _79
REMARK   34  A    between atoms: _78  and  _81
REMARK   35  A    between atoms: _81  and  _82
REMARK   36  A    between atoms: _87  and  _88
REMARK   37  A    between atoms: _90  and  _92
REMARK   38  A    between atoms: _92  and  _93
REMARK   39  A    between atoms: _92  and  _95
REMARK   40  A    between atoms: _95  and  _96
REMARK   41  A    between atoms: _106  and  _108
REMARK   42  A    between atoms: _108  and  _109
REMARK   43  A    between atoms: _108  and  _111
REMARK   44  A    between atoms: _111  and  _112
REMARK   45  A    between atoms: _112  and  _113
REMARK   46  A    between atoms: _113  and  _114
REMARK   47  A    between atoms: _114  and  _115
REMARK   48  A    between atoms: _119  and  _121
REMARK   49  A    between atoms: _121  and  _122
REMARK   50  A    between atoms: _121  and  _124
REMARK   51  A    between atoms: _124  and  _125
REMARK   52  A    between atoms: _125  and  _126
REMARK   53  A    between atoms: _131  and  _133
REMARK   54  A    between atoms: _133  and  _134
REMARK   55  A    between atoms: _133  and  _136
REMARK   56  A    between atoms: _136  and  _137
REMARK   57  A    between atoms: _139  and  _141
REMARK   58  A    between atoms: _141  and  _142
REMARK   59  A    between atoms: _141  and  _144
REMARK   60  A    between atoms: _144  and  _145
REMARK   61  A    between atoms: _150  and  _151
REMARK   62  A    between atoms: _153  and  _155
REMARK   63  A    between atoms: _155  and  _156
REMARK   64  A    between atoms: _155  and  _158
REMARK   65  A    between atoms: _158  and  _159
REMARK   66  A    between atoms: _164  and  _166
REMARK   67  A    between atoms: _166  and  _167
REMARK   68  A    between atoms: _166  and  _169
REMARK   69  A    between atoms: _169  and  _170
REMARK   70  A    between atoms: _173  and  _175
REMARK   71  A    between atoms: _175  and  _176
REMARK   72  A    between atoms: _175  and  _178
REMARK   73  A    between atoms: _178  and  _179
REMARK   74  A    between atoms: _179  and  _180
REMARK   75  A    between atoms: _180  and  _181
REMARK   76  A    between atoms: _190  and  _192
REMARK   77  A    between atoms: _192  and  _193
REMARK   78  A    between atoms: _192  and  _195
REMARK   79  A    between atoms: _195  and  _196
REMARK   80  A    between atoms: _201  and  _202
REMARK   81  A    between atoms: _204  and  _206
REMARK   82  A    between atoms: _206  and  _207
REMARK   83  A    between atoms: _206  and  _209
REMARK   84  A    between atoms: _209  and  _210
REMARK   85  A    between atoms: _216  and  _218
REMARK   86  A    between atoms: _218  and  _219
REMARK   87  A    between atoms: _218  and  _221
REMARK   88  A    between atoms: _221  and  _222
REMARK   89  A    between atoms: _225  and  _227
REMARK   90  A    between atoms: _227  and  _228
REMARK   91  A    between atoms: _227  and  _230
REMARK   92  A    between atoms: _230  and  _231
REMARK   93  A    between atoms: _231  and  _232
REMARK   94  A    between atoms: _232  and  _233
REMARK   95  A    between atoms: _242  and  _244
REMARK   96  A    between atoms: _244  and  _245
REMARK   97  A    between atoms: _244  and  _247
REMARK   98  A    between atoms: _247  and  _248
REMARK   99  A    between atoms: _253  and  _255
REMARK  100  A    between atoms: _255  and  _256
REMARK  101  A    between atoms: _259  and  _261
REMARK  102  A    between atoms: _261  and  _262
REMARK  103  A    between atoms: _261  and  _264
REMARK  104  A    between atoms: _264  and  _265
REMARK  105  A    between atoms: _270  and  _272
REMARK  106  A    between atoms: _272  and  _273
REMARK  107  A    between atoms: _272  and  _275
REMARK  108  A    between atoms: _275  and  _276
REMARK  109  A    between atoms: _279  and  _281
REMARK  110  A    between atoms: _281  and  _282
REMARK  111  A    between atoms: _281  and  _284
REMARK  112  A    between atoms: _284  and  _285
REMARK  113  A    between atoms: _285  and  _286
REMARK  114  A    between atoms: _286  and  _288
REMARK  115  A    between atoms: _289  and  _291
REMARK  116  A    between atoms: _291  and  _292
REMARK  117  A    between atoms: _291  and  _294
REMARK  118  A    between atoms: _294  and  _295
REMARK  119  A    between atoms: _298  and  _300
REMARK  120  A    between atoms: _300  and  _301
REMARK  121  A    between atoms: _300  and  _303
REMARK  122  A    between atoms: _303  and  _304
REMARK  123  A    between atoms: _309  and  _311
REMARK  124  A    between atoms: _311  and  _312
REMARK  125  A    between atoms: _311  and  _314
REMARK  126  A    between atoms: _314  and  _315
REMARK  127  A    between atoms: _318  and  _320
REMARK  128  A    between atoms: _320  and  _321
REMARK  129  A    between atoms: _323  and  _325
REMARK  130  A    between atoms: _325  and  _326
REMARK  131  A    between atoms: _325  and  _328
REMARK  132  A    between atoms: _328  and  _329
REMARK  133  A    between atoms: _334  and  _335
REMARK  134  A    between atoms: _337  and  _339
REMARK  135  A    between atoms: _339  and  _340
REMARK  136  A    between atoms: _339  and  _342
REMARK  137  A    between atoms: _342  and  _343
REMARK  138  A    between atoms: _348  and  _349
REMARK  139  A    between atoms: _351  and  _353
REMARK  140  A    between atoms: _353  and  _354
REMARK  141  A    between atoms: _353  and  _356
REMARK  142  A    between atoms: _356  and  _357
REMARK  143  A    between atoms: _357  and  _358
REMARK  144  A    between atoms: _361  and  _363
REMARK  145  A    between atoms: _363  and  _364
REMARK  146  A    between atoms: _363  and  _366
REMARK  147  A    between atoms: _366  and  _367
REMARK  148  A    between atoms: _367  and  _368
REMARK  149  A    between atoms: _368  and  _369
REMARK  150  A    between atoms: _378  and  _380
REMARK  151  A    between atoms: _380  and  _381
REMARK  152  A    between atoms: _380  and  _383
REMARK  153  A    between atoms: _383  and  _384
REMARK                            x       y       z     vdW  Elec       q    Type
REMARK                         _______ _______ _______ _____ _____    ______ ____
ROOT
ATOM      1  CG  TYR A   1      27.438   4.048  -2.677  0.00  0.00    -0.020 A 
ATOM      2  CD2 TYR A   1      27.009   4.555  -1.420  0.00  0.00    -0.001 A 
ATOM      3  CE2 TYR A   1      27.491   4.006  -0.228  0.00  0.00    +0.036 A 
ATOM      4  CZ  TYR A   1      28.409   2.959  -0.284  0.00  0.00    +0.134 A 
ATOM      5  CE1 TYR A   1      28.835   2.439  -1.514  0.00  0.00    +0.036 A 
ATOM      6  CD1 TYR A   1      28.352   2.993  -2.692  0.00  0.00    -0.001 A 
ENDROOT
BRANCH   4   7
ATOM      7  OH  TYR A   1      28.897   2.411   0.892  0.00  0.00    -0.506 OA
ATOM      8  HH  TYR A   1      29.882   2.504   0.914  0.00  0.00    +0.292 HD
ENDBRANCH   4   7
BRANCH   1   9
ATOM      9  CB  TYR A   1      26.907   4.613  -3.988  0.00  0.00    +0.051 C 
BRANCH   9  10
ATOM     10  CA  TYR A   1      26.598   6.134  -4.125  0.00  0.00    +0.137 C 
BRANCH  10  11
ATOM     11  N   TYR A   1      25.395   6.557  -3.391  0.00  0.00    -0.239 NA
ATOM     12  H   TYR A   1      24.856   5.836  -2.870  0.00  0.00    +0.142 HD
ENDBRANCH  10  11
BRANCH  10  13
ATOM     13  C   TYR A   1      26.189   6.334  -5.575  0.00  0.00    +0.224 C 
ATOM     14  O   TYR A   1      24.995   6.211  -5.894  0.00  0.00    -0.287 OA
ENDBRANCH  10  13
ENDBRANCH   9  10
ENDBRANCH   1   9
TORSDOF 5
REMARK  Name = ../refined-set-2016/3bpc/3bpc_pocket.pdb
REMARK  153 active torsions:
REMARK  status: ('A' for Active; 'I' for Inactive)
REMARK    1  A    between atoms: _1  and  _3
REMARK    2  A    between atoms: _3  and  _4
REMARK    3  A    between atoms: _3  and  _6
REMARK    4  A    between atoms: _6  and  _7
REMARK    5  A    between atoms: _12  and  _14
REMARK    6  A    between atoms: _14  and  _15
REMARK    7  A    between atoms: _14  and  _17
REMARK    8  A    between atoms: _17  and  _18
REMARK    9  A    between atoms: _20  and  _22
REMARK   10  A    between atoms: _22  and  _23
REMARK   11  A    between atoms: _22  and  _25
REMARK   12  A    between atoms: _25  and  _26
REMARK   13  A    between atoms: _26  and  _27
REMARK   14  A    between atoms: _27  and  _28
REMARK   15  A    between atoms: _37  and  _39
REMARK   16  A    between atoms: _39  and  _40
REMARK   17  A    between atoms: _39  and  _42
REMARK   18  A    between atoms: _42  and  _43
REMARK   19  A    between atoms: _46  and  _48
REMARK   20  A    between atoms: _48  and  _49
REMARK   21  A    between atoms: _48  and  _51
REMARK   22  A    between atoms: _51  and  _52
REMARK   23  A    between atoms: _52  and  _53
REMARK   24  A    between atoms: _53  and  _54
REMARK   25  A    between atoms: _63  and  _65
REMARK   26  A    between atoms: _65  and  _66
REMARK   27  A    between atoms: _65  and  _68
REMARK   28  A    between atoms: _68  and  _69
REMARK   29  A    between atoms: _69  and  _70
REMARK   30  A    between atoms: _70  and  _71
REMARK   31  A    between atoms: _71  and  _72
REMARK   32  A    between atoms: _76  and  _78
REMARK   33  A    between atoms: _78  and  _79
REMARK   34  A    between atoms: _78  and  _81
REMARK   35  A    between atoms: _81  and  _82
REMARK   36  A    between atoms: _87  and  _88
REMARK   37  A    between atoms: _90  and  _92
REMARK   38  A    between atoms: _92  and  _93
REMARK   39  A    between atoms: _92  and  _95
REMARK   40  A    between atoms: _95  and  _96
REMARK   41  A    between atoms: _106  and  _108
REMARK   42  A    between atoms: _108  and  _109
REMARK   43  A    between atoms: _108  and  _111
REMARK   44  A    between atoms: _111  and  _112
REMARK   45  A    between atoms: _112  and  _113
REMARK   46  A    between atoms: _113  and  _114
REMARK   47  A    between atoms: _114  and  _115
REMARK   48  A    between atoms: _119  and  _121
REMARK   49  A    between atoms: _121  and  _122
REMARK   50  A    between atoms: _121  and  _124
REMARK   51  A    between atoms: _124  and  _125
REMARK   52  A    between atoms: _125  and  _126
REMARK   53  A    between atoms: _131  and  _133
REMARK   54  A    between atoms: _133  and  _134
REMARK   55  A    between atoms: _133  and  _136
REMARK   56  A    between atoms: _136  and  _137
REMARK   57  A    between atoms: _139  and  _141
REMARK   58  A    between atoms: _141  and  _142
REMARK   59  A    between atoms: _141  and  _144
REMARK   60  A    between atoms: _144  and  _145
REMARK   61  A    between atoms: _150  and  _151
REMARK   62  A    between atoms: _153  and  _155
REMARK   63  A    between atoms: _155  and  _156
REMARK   64  A    between atoms: _155  and  _158
REMARK   65  A    between atoms: _158  and  _159
REMARK   66  A    between atoms: _164  and  _166
REMARK   67  A    between atoms: _166  and  _167
REMARK   68  A    between atoms: _166  and  _169
REMARK   69  A    between atoms: _169  and  _170
REMARK   70  A    between atoms: _173  and  _175
REMARK   71  A    between atoms: _175  and  _176
REMARK   72  A    between atoms: _175  and  _178
REMARK   73  A    between atoms: _178  and  _179
REMARK   74  A    between atoms: _179  and  _180
REMARK   75  A    between atoms: _180  and  _181
REMARK   76  A    between atoms: _190  and  _192
REMARK   77  A    between atoms: _192  and  _193
REMARK   78  A    between atoms: _192  and  _195
REMARK   79  A    between atoms: _195  and  _196
REMARK   80  A    between atoms: _201  and  _202
REMARK   81  A    between atoms: _204  and  _206
REMARK   82  A    between atoms: _206  and  _207
REMARK   83  A    between atoms: _206  and  _209
REMARK   84  A    between atoms: _209  and  _210
REMARK   85  A    between atoms: _216  and  _218
REMARK   86  A    between atoms: _218  and  _219
REMARK   87  A    between atoms: _218  and  _221
REMARK   88  A    between atoms: _221  and  _222
REMARK   89  A    between atoms: _225  and  _227
REMARK   90  A    between atoms: _227  and  _228
REMARK   91  A    between atoms: _227  and  _230
REMARK   92  A    between atoms: _230  and  _231
REMARK   93  A    between atoms: _231  and  _232
REMARK   94  A    between atoms: _232  and  _233
REMARK   95  A    between atoms: _242  and  _244
REMARK   96  A    between atoms: _244  and  _245
REMARK   97  A    between atoms: _244  and  _247
REMARK   98  A    between atoms: _247  and  _248
REMARK   99  A    between atoms: _253  and  _255
REMARK  100  A    between atoms: _255  and  _256
REMARK  101  A    between atoms: _259  and  _261
REMARK  102  A    between atoms: _261  and  _262
REMARK  103  A    between atoms: _261  and  _264
REMARK  104  A    between atoms: _264  and  _265
REMARK  105  A    between atoms: _270  and  _272
REMARK  106  A    between atoms: _272  and  _273
REMARK  107  A    between atoms: _272  and  _275
REMARK  108  A    between atoms: _275  and  _276
REMARK  109  A    between atoms: _279  and  _281
REMARK  110  A    between atoms: _281  and  _282
REMARK  111  A    between atoms: _281  and  _284
REMARK  112  A    between atoms: _284  and  _285
REMARK  113  A    between atoms: _285  and  _286
REMARK  114  A    between atoms: _286  and  _288
REMARK  115  A    between atoms: _289  and  _291
REMARK  116  A    between atoms: _291  and  _292
REMARK  117  A    between atoms: _291  and  _294
REMARK  118  A    between atoms: _294  and  _295
REMARK  119  A    between atoms: _298  and  _300
REMARK  120  A    between atoms: _300  and  _301
REMARK  121  A    between atoms: _300  and  _303
REMARK  122  A    between atoms: _303  and  _304
REMARK  123  A    between atoms: _309  and  _311
REMARK  124  A    between atoms: _311  and  _312
REMARK  125  A    between atoms: _311  and  _314
REMARK  126  A    between atoms: _314  and  _315
REMARK  127  A    between atoms: _318  and  _320
REMARK  128  A    between atoms: _320  and  _321
REMARK  129  A    between atoms: _323  and  _325
REMARK  130  A    between atoms: _325  and  _326
REMARK  131  A    between atoms: _325  and  _328
REMARK  132  A    between atoms: _328  and  _329
REMARK  133  A    between atoms: _334  and  _335
REMARK  134  A    between atoms: _337  and  _339
REMARK  135  A    between atoms: _339  and  _340
REMARK  136  A    between atoms: _339  and  _342
REMARK  137  A    between atoms: _342  and  _343
REMARK  138  A    between atoms: _348  and  _349
REMARK  139  A    between atoms: _351  and  _353
REMARK  140  A    between atoms: _353  and  _354
REMARK  141  A    between atoms: _353  and  _356
REMARK  142  A    between atoms: _356  and  _357
REMARK  143  A    between atoms: _357  and  _358
REMARK  144  A    between atoms: _361  and  _363
REMARK  145  A    between atoms: _363  and  _364
REMARK  146  A    between atoms: _363  and  _366
REMARK  147  A    between atoms: _366  and  _367
REMARK  148  A    between atoms: _367  and  _368
REMARK  149  A    between atoms: _368  and  _369
REMARK  150  A    between atoms: _378  and  _380
REMARK  151  A    between atoms: _380  and  _381
REMARK  152  A    between atoms: _380  and  _383
REMARK  153  A    between atoms: _383  and  _384
REMARK                            x       y       z     vdW  Elec       q    Type
REMARK                         _______ _______ _______ _____ _____    ______ ____
ROOT
ATOM      1  CA  ARG A   3      30.256   6.643  -2.033  0.00  0.00    +0.149 C 
ENDROOT
BRANCH   1   3
ATOM      2  C   ILE A   2      30.811   7.021  -4.366  0.00  0.00    +0.241 C 
ATOM      3  N   ARG A   3      31.221   6.864  -3.110  0.00  0.00    -0.297 N 
ATOM      4  H   ARG A   3      32.237   6.899  -2.892  0.00  0.00    +0.150 HD
ATOM      5  O   ILE A   2      29.594   7.030  -4.721  0.00  0.00    -0.273 OA
BRANCH   2   6
ATOM      6  CA  ILE A   2      31.937   7.166  -5.373  0.00  0.00    +0.148 C 
BRANCH   6   8
ATOM      7  C   PHE A   1      32.389   5.207  -6.743  0.00  0.00    +0.239 C 
ATOM      8  N   ILE A   2      31.584   6.210  -6.414  0.00  0.00    -0.297 N 
ATOM      9  H   ILE A   2      30.677   6.316  -6.913  0.00  0.00    +0.150 HD
ATOM     10  O   PHE A   1      33.596   5.168  -6.427  0.00  0.00    -0.274 OA
BRANCH   7  11
ATOM     11  CA  PHE A   1      31.753   4.097  -7.662  0.00  0.00    +0.149 C 
BRANCH  11  12
ATOM     12  N   PHE A   1      32.766   3.300  -8.311  0.00  0.00    -0.238 NA
ATOM     13  H   PHE A   1      33.594   2.985  -7.766  0.00  0.00    +0.142 HD
ENDBRANCH  11  12
BRANCH  11  14
ATOM     14  CB  PHE A   1      30.663   3.194  -6.999  0.00  0.00    +0.053 C 
BRANCH  14  15
ATOM     15  CG  PHE A   1      31.083   2.410  -5.790  0.00  0.00    -0.020 A 
ATOM     16  CD2 PHE A   1      31.922   2.968  -4.767  0.00  0.00    -0.004 A 
ATOM     17  CE2 PHE A   1      32.249   2.205  -3.653  0.00  0.00    -0.000 A 
ATOM     18  CZ  PHE A   1      31.758   0.915  -3.502  0.00  0.00    -0.000 A 
ATOM     19  CE1 PHE A   1      30.894   0.366  -4.472  0.00  0.00    -0.000 A 
ATOM     20  CD1 PHE A   1      30.580   1.110  -5.597  0.00  0.00    -0.004 A 
ENDBRANCH  14  15
ENDBRANCH  11  14
ENDBRANCH   7  11
ENDBRANCH   6   8
BRANCH   6  21
ATOM     21  CB  ILE A   2      32.153   8.591  -5.938  0.00  0.00    +0.027 C 
ATOM     22  CG2 ILE A   2      30.923   9.080  -6.789  0.00  0.00    +0.002 C 
BRANCH  21  23
ATOM     23  CG1 ILE A   2      32.528   9.588  -4.830  0.00  0.00    +0.002 C 
ATOM     24  CD1 ILE A   2      33.170  10.847  -5.397  0.00  0.00    +0.000 C 
ENDBRANCH  21  23
ENDBRANCH   6  21
ENDBRANCH   2   6
ENDBRANCH   1   3
BRANCH   1  25
ATOM     25  C   ARG A   3      29.438   7.876  -1.687  0.00  0.00    +0.241 C 
ATOM     26  N   ASN A   4      28.387   7.686  -0.859  0.00  0.00    -0.298 N 
ATOM     27  H   ASN A   4      28.159   6.718  -0.553  0.00  0.00    +0.150 HD
ATOM     28  O   ARG A   3      29.716   8.966  -2.202  0.00  0.00    -0.273 OA
BRANCH  26  29
ATOM     29  CA  ASN A   4      27.560   8.787  -0.378  0.00  0.00    +0.146 C 
BRANCH  29  30
ATOM     30  C   ASN A   4      28.216   9.587   0.765  0.00  0.00    +0.227 C 
ATOM     31  O   ASN A   4      29.310   9.271   1.236  0.00  0.00    -0.286 OA
ENDBRANCH  29  30
BRANCH  29  32
ATOM     32  CB  ASN A   4      26.129   8.309   0.025  0.00  0.00    +0.112 C 
BRANCH  32  33
ATOM     33  CG  ASN A   4      26.148   7.185   1.094  0.00  0.00    +0.222 C 
ATOM     34  OD1 ASN A   4      27.172   6.922   1.685  0.00  0.00    -0.275 OA
ATOM     35  ND2 ASN A   4      25.016   6.545   1.327  0.00  0.00    -0.329 N 
ATOM     36 HD21 ASN A   4      24.984   5.787   2.038  0.00  0.00    +0.145 HD
ATOM     37 HD22 ASN A   4      24.157   6.799   0.799  0.00  0.00    +0.145 HD
ENDBRANCH  32  33
ENDBRANCH  29  32
ENDBRANCH  26  29
ENDBRANCH   1  25
BRANCH   1  38
ATOM     38  CB  ARG A   3      30.981   6.073  -0.808  0.00  0.00    +0.033 C 
BRANCH  38  39
ATOM     39  CG  ARG A   3      31.693   4.761  -1.108  0.00  0.00    +0.045 C 
BRANCH  39  40
ATOM     40  CD  ARG A   3      32.120   4.077   0.220  0.00  0.00    +0.174 C 
BRANCH  40  41
ATOM     41  NE  ARG A   3      32.500   2.686   0.020  0.00  0.00    -0.265 N 
ATOM     42  HE  ARG A   3      31.746   1.974   0.096  0.00  0.00    +0.259 HD
ATOM     43  CZ  ARG A   3      33.726   2.242  -0.252  0.00  0.00    +0.342 C 
ATOM     44  NH2 ARG A   3      33.931   0.931  -0.383  0.00  0.00    -0.292 N 
ATOM     45 HH21 ARG A   3      33.138   0.267  -0.273  0.00  0.00    +0.255 HD
ATOM     46 HH22 ARG A   3      34.884   0.572  -0.595  0.00  0.00    +0.255 HD
ATOM     47  NH1 ARG A   3      34.752   3.075  -0.387  0.00  0.00    -0.292 N 
ATOM     48 HH11 ARG A   3      34.608   4.099  -0.280  0.00  0.00    +0.255 HD
ATOM     49 HH12 ARG A   3      35.700   2.703  -0.599  0.00  0.00    +0.255 HD
ENDBRANCH  40  41
ENDBRANCH  39  40
ENDBRANCH  38  39
ENDBRANCH   1  38
TORSDOF 18
REMARK  Name = ../refined-set-2016/3bpc/3bpc_pocket.pdb
REMARK  153 active torsions:
REMARK  status: ('A' for Active; 'I' for Inactive)
REMARK    1  A    between atoms: _1  and  _3
REMARK    2  A    between atoms: _3  and  _4
REMARK    3  A    between atoms: _3  and  _6
REMARK    4  A    between atoms: _6  and  _7
REMARK    5  A    between atoms: _12  and  _14
REMARK    6  A    between atoms: _14  and  _15
REMARK    7  A    between atoms: _14  and  _17
REMARK    8  A    between atoms: _17  and  _18
REMARK    9  A    between atoms: _20  and  _22
REMARK   10  A    between atoms: _22  and  _23
REMARK   11  A    between atoms: _22  and  _25
REMARK   12  A    between atoms: _25  and  _26
REMARK   13  A    between atoms: _26  and  _27
REMARK   14  A    between atoms: _27  and  _28
REMARK   15  A    between atoms: _37  and  _39
REMARK   16  A    between atoms: _39  and  _40
REMARK   17  A    between atoms: _39  and  _42
REMARK   18  A    between atoms: _42  and  _43
REMARK   19  A    between atoms: _46  and  _48
REMARK   20  A    between atoms: _48  and  _49
REMARK   21  A    between atoms: _48  and  _51
REMARK   22  A    between atoms: _51  and  _52
REMARK   23  A    between atoms: _52  and  _53
REMARK   24  A    between atoms: _53  and  _54
REMARK   25  A    between atoms: _63  and  _65
REMARK   26  A    between atoms: _65  and  _66
REMARK   27  A    between atoms: _65  and  _68
REMARK   28  A    between atoms: _68  and  _69
REMARK   29  A    between atoms: _69  and  _70
REMARK   30  A    between atoms: _70  and  _71
REMARK   31  A    between atoms: _71  and  _72
REMARK   32  A    between atoms: _76  and  _78
REMARK   33  A    between atoms: _78  and  _79
REMARK   34  A    between atoms: _78  and  _81
REMARK   35  A    between atoms: _81  and  _82
REMARK   36  A    between atoms: _87  and  _88
REMARK   37  A    between atoms: _90  and  _92
REMARK   38  A    between atoms: _92  and  _93
REMARK   39  A    between atoms: _92  and  _95
REMARK   40  A    between atoms: _95  and  _96
REMARK   41  A    between atoms: _106  and  _108
REMARK   42  A    between atoms: _108  and  _109
REMARK   43  A    between atoms: _108  and  _111
REMARK   44  A    between atoms: _111  and  _112
REMARK   45  A    between atoms: _112  and  _113
REMARK   46  A    between atoms: _113  and  _114
REMARK   47  A    between atoms: _114  and  _115
REMARK   48  A    between atoms: _119  and  _121
REMARK   49  A    between atoms: _121  and  _122
REMARK   50  A    between atoms: _121  and  _124
REMARK   51  A    between atoms: _124  and  _125
REMARK   52  A    between atoms: _125  and  _126
REMARK   53  A    between atoms: _131  and  _133
REMARK   54  A    between atoms: _133  and  _134
REMARK   55  A    between atoms: _133  and  _136
REMARK   56  A    between atoms: _136  and  _137
REMARK   57  A    between atoms: _139  and  _141
REMARK   58  A    between atoms: _141  and  _142
REMARK   59  A    between atoms: _141  and  _144
REMARK   60  A    between atoms: _144  and  _145
REMARK   61  A    between atoms: _150  and  _151
REMARK   62  A    between atoms: _153  and  _155
REMARK   63  A    between atoms: _155  and  _156
REMARK   64  A    between atoms: _155  and  _158
REMARK   65  A    between atoms: _158  and  _159
REMARK   66  A    between atoms: _164  and  _166
REMARK   67  A    between atoms: _166  and  _167
REMARK   68  A    between atoms: _166  and  _169
REMARK   69  A    between atoms: _169  and  _170
REMARK   70  A    between atoms: _173  and  _175
REMARK   71  A    between atoms: _175  and  _176
REMARK   72  A    between atoms: _175  and  _178
REMARK   73  A    between atoms: _178  and  _179
REMARK   74  A    between atoms: _179  and  _180
REMARK   75  A    between atoms: _180  and  _181
REMARK   76  A    between atoms: _190  and  _192
REMARK   77  A    between atoms: _192  and  _193
REMARK   78  A    between atoms: _192  and  _195
REMARK   79  A    between atoms: _195  and  _196
REMARK   80  A    between atoms: _201  and  _202
REMARK   81  A    between atoms: _204  and  _206
REMARK   82  A    between atoms: _206  and  _207
REMARK   83  A    between atoms: _206  and  _209
REMARK   84  A    between atoms: _209  and  _210
REMARK   85  A    between atoms: _216  and  _218
REMARK   86  A    between atoms: _218  and  _219
REMARK   87  A    between atoms: _218  and  _221
REMARK   88  A    between atoms: _221  and  _222
REMARK   89  A    between atoms: _225  and  _227
REMARK   90  A    between atoms: _227  and  _228
REMARK   91  A    between atoms: _227  and  _230
REMARK   92  A    between atoms: _230  and  _231
REMARK   93  A    between atoms: _231  and  _232
REMARK   94  A    between atoms: _232  and  _233
REMARK   95  A    between atoms: _242  and  _244
REMARK   96  A    between atoms: _244  and  _245
REMARK   97  A    between atoms: _244  and  _247
REMARK   98  A    between atoms: _247  and  _248
REMARK   99  A    between atoms: _253  and  _255
REMARK  100  A    between atoms: _255  and  _256
REMARK  101  A    between atoms: _259  and  _261
REMARK  102  A    between atoms: _261  and  _262
REMARK  103  A    between atoms: _261  and  _264
REMARK  104  A    between atoms: _264  and  _265
REMARK  105  A    between atoms: _270  and  _272
REMARK  106  A    between atoms: _272  and  _273
REMARK  107  A    between atoms: _272  and  _275
REMARK  108  A    between atoms: _275  and  _276
REMARK  109  A    between atoms: _279  and  _281
REMARK  110  A    between atoms: _281  and  _282
REMARK  111  A    between atoms: _281  and  _284
REMARK  112  A    between atoms: _284  and  _285
REMARK  113  A    between atoms: _285  and  _286
REMARK  114  A    between atoms: _286  and  _288
REMARK  115  A    between atoms: _289  and  _291
REMARK  116  A    between atoms: _291  and  _292
REMARK  117  A    between atoms: _291  and  _294
REMARK  118  A    between atoms: _294  and  _295
REMARK  119  A    between atoms: _298  and  _300
REMARK  120  A    between atoms: _300  and  _301
REMARK  121  A    between atoms: _300  and  _303
REMARK  122  A    between atoms: _303  and  _304
REMARK  123  A    between atoms: _309  and  _311
REMARK  124  A    between atoms: _311  and  _312
REMARK  125  A    between atoms: _311  and  _314
REMARK  126  A    between atoms: _314  and  _315
REMARK  127  A    between atoms: _318  and  _320
REMARK  128  A    between atoms: _320  and  _321
REMARK  129  A    between atoms: _323  and  _325
REMARK  130  A    between atoms: _325  and  _326
REMARK  131  A    between atoms: _325  and  _328
REMARK  132  A    between atoms: _328  and  _329
REMARK  133  A    between atoms: _334  and  _335
REMARK  134  A    between atoms: _337  and  _339
REMARK  135  A    between atoms: _339  and  _340
REMARK  136  A    between atoms: _339  and  _342
REMARK  137  A    between atoms: _342  and  _343
REMARK  138  A    between atoms: _348  and  _349
REMARK  139  A    between atoms: _351  and  _353
REMARK  140  A    between atoms: _353  and  _354
REMARK  141  A    between atoms: _353  and  _356
REMARK  142  A    between atoms: _356  and  _357
REMARK  143  A    between atoms: _357  and  _358
REMARK  144  A    between atoms: _361  and  _363
REMARK  145  A    between atoms: _363  and  _364
REMARK  146  A    between atoms: _363  and  _366
REMARK  147  A    between atoms: _366  and  _367
REMARK  148  A    between atoms: _367  and  _368
REMARK  149  A    between atoms: _368  and  _369
REMARK  150  A    between atoms: _378  and  _380
REMARK  151  A    between atoms: _380  and  _381
REMARK  152  A    between atoms: _380  and  _383
REMARK  153  A    between atoms: _383  and  _384
REMARK                            x       y       z     vdW  Elec       q    Type
REMARK                         _______ _______ _______ _____ _____    ______ ____
ROOT
ATOM      1  CA  ASN A   2      30.633   7.116   3.763  0.00  0.00    +0.146 C 
ENDROOT
BRANCH   1   4
ATOM      2  C   ALA A   1      28.901   8.152   5.153  0.00  0.00    +0.238 C 
ATOM      3  O   ALA A   1      29.419   7.753   6.205  0.00  0.00    -0.274 OA
ATOM      4  N   ASN A   2      29.423   7.910   3.952  0.00  0.00    -0.298 N 
ATOM      5  H   ASN A   2      28.949   8.303   3.114  0.00  0.00    +0.150 HD
BRANCH   2   6
ATOM      6  CA  ALA A   1      27.590   8.949   5.158  0.00  0.00    +0.145 C 
ATOM      7  CB  ALA A   1      26.398   8.007   5.241  0.00  0.00    +0.028 C 
BRANCH   6   8
ATOM      8  N   ALA A   1      27.441   9.818   3.977  0.00  0.00    -0.238 NA
ATOM      9  H   ALA A   1      26.556   9.762   3.434  0.00  0.00    +0.142 HD
ENDBRANCH   6   8
ENDBRANCH   2   6
ENDBRANCH   1   4
BRANCH   1  10
ATOM     10  C   ASN A   2      31.819   7.917   3.241  0.00  0.00    +0.227 C 
ATOM     11  O   ASN A   2      32.717   7.383   2.642  0.00  0.00    -0.286 OA
ENDBRANCH   1  10
BRANCH   1  12
ATOM     12  CB  ASN A   2      30.348   5.852   2.907  0.00  0.00    +0.112 C 
BRANCH  12  13
ATOM     13  CG  ASN A   2      29.562   4.796   3.687  0.00  0.00    +0.222 C 
ATOM     14  OD1 ASN A   2      30.154   3.910   4.320  0.00  0.00    -0.275 OA
ATOM     15  ND2 ASN A   2      28.228   4.922   3.698  0.00  0.00    -0.329 N 
ATOM     16 HD21 ASN A   2      27.648   4.261   4.253  0.00  0.00    +0.145 HD
ATOM     17 HD22 ASN A   2      27.773   5.681   3.152  0.00  0.00    +0.145 HD
ENDBRANCH  12  13
ENDBRANCH   1  12
TORSDOF 6
REMARK  Name = ../refined-set-2016/3bpc/3bpc_pocket.pdb
REMARK  153 active torsions:
REMARK  status: ('A' for Active; 'I' for Inactive)
REMARK    1  A    between atoms: _1  and  _3
REMARK    2  A    between atoms: _3  and  _4
REMARK    3  A    between atoms: _3  and  _6
REMARK    4  A    between atoms: _6  and  _7
REMARK    5  A    between atoms: _12  and  _14
REMARK    6  A    between atoms: _14  and  _15
REMARK    7  A    between atoms: _14  and  _17
REMARK    8  A    between atoms: _17  and  _18
REMARK    9  A    between atoms: _20  and  _22
REMARK   10  A    between atoms: _22  and  _23
REMARK   11  A    between atoms: _22  and  _25
REMARK   12  A    between atoms: _25  and  _26
REMARK   13  A    between atoms: _26  and  _27
REMARK   14  A    between atoms: _27  and  _28
REMARK   15  A    between atoms: _37  and  _39
REMARK   16  A    between atoms: _39  and  _40
REMARK   17  A    between atoms: _39  and  _42
REMARK   18  A    between atoms: _42  and  _43
REMARK   19  A    between atoms: _46  and  _48
REMARK   20  A    between atoms: _48  and  _49
REMARK   21  A    between atoms: _48  and  _51
REMARK   22  A    between atoms: _51  and  _52
REMARK   23  A    between atoms: _52  and  _53
REMARK   24  A    between atoms: _53  and  _54
REMARK   25  A    between atoms: _63  and  _65
REMARK   26  A    between atoms: _65  and  _66
REMARK   27  A    between atoms: _65  and  _68
REMARK   28  A    between atoms: _68  and  _69
REMARK   29  A    between atoms: _69  and  _70
REMARK   30  A    between atoms: _70  and  _71
REMARK   31  A    between atoms: _71  and  _72
REMARK   32  A    between atoms: _76  and  _78
REMARK   33  A    between atoms: _78  and  _79
REMARK   34  A    between atoms: _78  and  _81
REMARK   35  A    between atoms: _81  and  _82
REMARK   36  A    between atoms: _87  and  _88
REMARK   37  A    between atoms: _90  and  _92
REMARK   38  A    between atoms: _92  and  _93
REMARK   39  A    between atoms: _92  and  _95
REMARK   40  A    between atoms: _95  and  _96
REMARK   41  A    between atoms: _106  and  _108
REMARK   42  A    between atoms: _108  and  _109
REMARK   43  A    between atoms: _108  and  _111
REMARK   44  A    between atoms: _111  and  _112
REMARK   45  A    between atoms: _112  and  _113
REMARK   46  A    between atoms: _113  and  _114
REMARK   47  A    between atoms: _114  and  _115
REMARK   48  A    between atoms: _119  and  _121
REMARK   49  A    between atoms: _121  and  _122
REMARK   50  A    between atoms: _121  and  _124
REMARK   51  A    between atoms: _124  and  _125
REMARK   52  A    between atoms: _125  and  _126
REMARK   53  A    between atoms: _131  and  _133
REMARK   54  A    between atoms: _133  and  _134
REMARK   55  A    between atoms: _133  and  _136
REMARK   56  A    between atoms: _136  and  _137
REMARK   57  A    between atoms: _139  and  _141
REMARK   58  A    between atoms: _141  and  _142
REMARK   59  A    between atoms: _141  and  _144
REMARK   60  A    between atoms: _144  and  _145
REMARK   61  A    between atoms: _150  and  _151
REMARK   62  A    between atoms: _153  and  _155
REMARK   63  A    between atoms: _155  and  _156
REMARK   64  A    between atoms: _155  and  _158
REMARK   65  A    between atoms: _158  and  _159
REMARK   66  A    between atoms: _164  and  _166
REMARK   67  A    between atoms: _166  and  _167
REMARK   68  A    between atoms: _166  and  _169
REMARK   69  A    between atoms: _169  and  _170
REMARK   70  A    between atoms: _173  and  _175
REMARK   71  A    between atoms: _175  and  _176
REMARK   72  A    between atoms: _175  and  _178
REMARK   73  A    between atoms: _178  and  _179
REMARK   74  A    between atoms: _179  and  _180
REMARK   75  A    between atoms: _180  and  _181
REMARK   76  A    between atoms: _190  and  _192
REMARK   77  A    between atoms: _192  and  _193
REMARK   78  A    between atoms: _192  and  _195
REMARK   79  A    between atoms: _195  and  _196
REMARK   80  A    between atoms: _201  and  _202
REMARK   81  A    between atoms: _204  and  _206
REMARK   82  A    between atoms: _206  and  _207
REMARK   83  A    between atoms: _206  and  _209
REMARK   84  A    between atoms: _209  and  _210
REMARK   85  A    between atoms: _216  and  _218
REMARK   86  A    between atoms: _218  and  _219
REMARK   87  A    between atoms: _218  and  _221
REMARK   88  A    between atoms: _221  and  _222
REMARK   89  A    between atoms: _225  and  _227
REMARK   90  A    between atoms: _227  and  _228
REMARK   91  A    between atoms: _227  and  _230
REMARK   92  A    between atoms: _230  and  _231
REMARK   93  A    between atoms: _231  and  _232
REMARK   94  A    between atoms: _232  and  _233
REMARK   95  A    between atoms: _242  and  _244
REMARK   96  A    between atoms: _244  and  _245
REMARK   97  A    between atoms: _244  and  _247
REMARK   98  A    between atoms: _247  and  _248
REMARK   99  A    between atoms: _253  and  _255
REMARK  100  A    between atoms: _255  and  _256
REMARK  101  A    between atoms: _259  and  _261
REMARK  102  A    between atoms: _261  and  _262
REMARK  103  A    between atoms: _261  and  _264
REMARK  104  A    between atoms: _264  and  _265
REMARK  105  A    between atoms: _270  and  _272
REMARK  106  A    between atoms: _272  and  _273
REMARK  107  A    between atoms: _272  and  _275
REMARK  108  A    between atoms: _275  and  _276
REMARK  109  A    between atoms: _279  and  _281
REMARK  110  A    between atoms: _281  and  _282
REMARK  111  A    between atoms: _281  and  _284
REMARK  112  A    between atoms: _284  and  _285
REMARK  113  A    between atoms: _285  and  _286
REMARK  114  A    between atoms: _286  and  _288
REMARK  115  A    between atoms: _289  and  _291
REMARK  116  A    between atoms: _291  and  _292
REMARK  117  A    between atoms: _291  and  _294
REMARK  118  A    between atoms: _294  and  _295
REMARK  119  A    between atoms: _298  and  _300
REMARK  120  A    between atoms: _300  and  _301
REMARK  121  A    between atoms: _300  and  _303
REMARK  122  A    between atoms: _303  and  _304
REMARK  123  A    between atoms: _309  and  _311
REMARK  124  A    between atoms: _311  and  _312
REMARK  125  A    between atoms: _311  and  _314
REMARK  126  A    between atoms: _314  and  _315
REMARK  127  A    between atoms: _318  and  _320
REMARK  128  A    between atoms: _320  and  _321
REMARK  129  A    between atoms: _323  and  _325
REMARK  130  A    between atoms: _325  and  _326
REMARK  131  A    between atoms: _325  and  _328
REMARK  132  A    between atoms: _328  and  _329
REMARK  133  A    between atoms: _334  and  _335
REMARK  134  A    between atoms: _337  and  _339
REMARK  135  A    between atoms: _339  and  _340
REMARK  136  A    between atoms: _339  and  _342
REMARK  137  A    between atoms: _342  and  _343
REMARK  138  A    between atoms: _348  and  _349
REMARK  139  A    between atoms: _351  and  _353
REMARK  140  A    between atoms: _353  and  _354
REMARK  141  A    between atoms: _353  and  _356
REMARK  142  A    between atoms: _356  and  _357
REMARK  143  A    between atoms: _357  and  _358
REMARK  144  A    between atoms: _361  and  _363
REMARK  145  A    between atoms: _363  and  _364
REMARK  146  A    between atoms: _363  and  _366
REMARK  147  A    between atoms: _366  and  _367
REMARK  148  A    between atoms: _367  and  _368
REMARK  149  A    between atoms: _368  and  _369
REMARK  150  A    between atoms: _378  and  _380
REMARK  151  A    between atoms: _380  and  _381
REMARK  152  A    between atoms: _380  and  _383
REMARK  153  A    between atoms: _383  and  _384
REMARK                            x       y       z     vdW  Elec       q    Type
REMARK                         _______ _______ _______ _____ _____    ______ ____
ROOT
ATOM      1  CA  THR A   1      35.307   7.667  -0.931  0.00  0.00    +0.160 C 
ENDROOT
BRANCH   1   2
ATOM      2  N   THR A   1      34.113   8.365  -0.480  0.00  0.00    -0.237 NA
ATOM      3  H   THR A   1      33.539   7.965   0.289  0.00  0.00    +0.142 HD
ENDBRANCH   1   2
BRANCH   1   4
ATOM      4  CB  THR A   1      35.866   6.733   0.132  0.00  0.00    +0.134 C 
ATOM      5  CG2 THR A   1      36.381   7.582   1.373  0.00  0.00    +0.034 C 
BRANCH   4   6
ATOM      6  OG1 THR A   1      34.832   5.816   0.537  0.00  0.00    -0.383 OA
ATOM      7  HG1 THR A   1      35.188   5.204   1.229  0.00  0.00    +0.210 HD
ENDBRANCH   4   6
ENDBRANCH   1   4
BRANCH   1   8
ATOM      8  C   THR A   1      35.033   6.925  -2.244  0.00  0.00    +0.227 C 
ATOM      9  O   THR A   1      33.880   6.708  -2.625  0.00  0.00    -0.287 OA
ENDBRANCH   1   8
TORSDOF 4
REMARK  Name = ../refined-set-2016/3bpc/3bpc_pocket.pdb
REMARK  153 active torsions:
REMARK  status: ('A' for Active; 'I' for Inactive)
REMARK    1  A    between atoms: _1  and  _3
REMARK    2  A    between atoms: _3  and  _4
REMARK    3  A    between atoms: _3  and  _6
REMARK    4  A    between atoms: _6  and  _7
REMARK    5  A    between atoms: _12  and  _14
REMARK    6  A    between atoms: _14  and  _15
REMARK    7  A    between atoms: _14  and  _17
REMARK    8  A    between atoms: _17  and  _18
REMARK    9  A    between atoms: _20  and  _22
REMARK   10  A    between atoms: _22  and  _23
REMARK   11  A    between atoms: _22  and  _25
REMARK   12  A    between atoms: _25  and  _26
REMARK   13  A    between atoms: _26  and  _27
REMARK   14  A    between atoms: _27  and  _28
REMARK   15  A    between atoms: _37  and  _39
REMARK   16  A    between atoms: _39  and  _40
REMARK   17  A    between atoms: _39  and  _42
REMARK   18  A    between atoms: _42  and  _43
REMARK   19  A    between atoms: _46  and  _48
REMARK   20  A    between atoms: _48  and  _49
REMARK   21  A    between atoms: _48  and  _51
REMARK   22  A    between atoms: _51  and  _52
REMARK   23  A    between atoms: _52  and  _53
REMARK   24  A    between atoms: _53  and  _54
REMARK   25  A    between atoms: _63  and  _65
REMARK   26  A    between atoms: _65  and  _66
REMARK   27  A    between atoms: _65  and  _68
REMARK   28  A    between atoms: _68  and  _69
REMARK   29  A    between atoms: _69  and  _70
REMARK   30  A    between atoms: _70  and  _71
REMARK   31  A    between atoms: _71  and  _72
REMARK   32  A    between atoms: _76  and  _78
REMARK   33  A    between atoms: _78  and  _79
REMARK   34  A    between atoms: _78  and  _81
REMARK   35  A    between atoms: _81  and  _82
REMARK   36  A    between atoms: _87  and  _88
REMARK   37  A    between atoms: _90  and  _92
REMARK   38  A    between atoms: _92  and  _93
REMARK   39  A    between atoms: _92  and  _95
REMARK   40  A    between atoms: _95  and  _96
REMARK   41  A    between atoms: _106  and  _108
REMARK   42  A    between atoms: _108  and  _109
REMARK   43  A    between atoms: _108  and  _111
REMARK   44  A    between atoms: _111  and  _112
REMARK   45  A    between atoms: _112  and  _113
REMARK   46  A    between atoms: _113  and  _114
REMARK   47  A    between atoms: _114  and  _115
REMARK   48  A    between atoms: _119  and  _121
REMARK   49  A    between atoms: _121  and  _122
REMARK   50  A    between atoms: _121  and  _124
REMARK   51  A    between atoms: _124  and  _125
REMARK   52  A    between atoms: _125  and  _126
REMARK   53  A    between atoms: _131  and  _133
REMARK   54  A    between atoms: _133  and  _134
REMARK   55  A    between atoms: _133  and  _136
REMARK   56  A    between atoms: _136  and  _137
REMARK   57  A    between atoms: _139  and  _141
REMARK   58  A    between atoms: _141  and  _142
REMARK   59  A    between atoms: _141  and  _144
REMARK   60  A    between atoms: _144  and  _145
REMARK   61  A    between atoms: _150  and  _151
REMARK   62  A    between atoms: _153  and  _155
REMARK   63  A    between atoms: _155  and  _156
REMARK   64  A    between atoms: _155  and  _158
REMARK   65  A    between atoms: _158  and  _159
REMARK   66  A    between atoms: _164  and  _166
REMARK   67  A    between atoms: _166  and  _167
REMARK   68  A    between atoms: _166  and  _169
REMARK   69  A    between atoms: _169  and  _170
REMARK   70  A    between atoms: _173  and  _175
REMARK   71  A    between atoms: _175  and  _176
REMARK   72  A    between atoms: _175  and  _178
REMARK   73  A    between atoms: _178  and  _179
REMARK   74  A    between atoms: _179  and  _180
REMARK   75  A    between atoms: _180  and  _181
REMARK   76  A    between atoms: _190  and  _192
REMARK   77  A    between atoms: _192  and  _193
REMARK   78  A    between atoms: _192  and  _195
REMARK   79  A    between atoms: _195  and  _196
REMARK   80  A    between atoms: _201  and  _202
REMARK   81  A    between atoms: _204  and  _206
REMARK   82  A    between atoms: _206  and  _207
REMARK   83  A    between atoms: _206  and  _209
REMARK   84  A    between atoms: _209  and  _210
REMARK   85  A    between atoms: _216  and  _218
REMARK   86  A    between atoms: _218  and  _219
REMARK   87  A    between atoms: _218  and  _221
REMARK   88  A    between atoms: _221  and  _222
REMARK   89  A    between atoms: _225  and  _227
REMARK   90  A    between atoms: _227  and  _228
REMARK   91  A    between atoms: _227  and  _230
REMARK   92  A    between atoms: _230  and  _231
REMARK   93  A    between atoms: _231  and  _232
REMARK   94  A    between atoms: _232  and  _233
REMARK   95  A    between atoms: _242  and  _244
REMARK   96  A    between atoms: _244  and  _245
REMARK   97  A    between atoms: _244  and  _247
REMARK   98  A    between atoms: _247  and  _248
REMARK   99  A    between atoms: _253  and  _255
REMARK  100  A    between atoms: _255  and  _256
REMARK  101  A    between atoms: _259  and  _261
REMARK  102  A    between atoms: _261  and  _262
REMARK  103  A    between atoms: _261  and  _264
REMARK  104  A    between atoms: _264  and  _265
REMARK  105  A    between atoms: _270  and  _272
REMARK  106  A    between atoms: _272  and  _273
REMARK  107  A    between atoms: _272  and  _275
REMARK  108  A    between atoms: _275  and  _276
REMARK  109  A    between atoms: _279  and  _281
REMARK  110  A    between atoms: _281  and  _282
REMARK  111  A    between atoms: _281  and  _284
REMARK  112  A    between atoms: _284  and  _285
REMARK  113  A    between atoms: _285  and  _286
REMARK  114  A    between atoms: _286  and  _288
REMARK  115  A    between atoms: _289  and  _291
REMARK  116  A    between atoms: _291  and  _292
REMARK  117  A    between atoms: _291  and  _294
REMARK  118  A    between atoms: _294  and  _295
REMARK  119  A    between atoms: _298  and  _300
REMARK  120  A    between atoms: _300  and  _301
REMARK  121  A    between atoms: _300  and  _303
REMARK  122  A    between atoms: _303  and  _304
REMARK  123  A    between atoms: _309  and  _311
REMARK  124  A    between atoms: _311  and  _312
REMARK  125  A    between atoms: _311  and  _314
REMARK  126  A    between atoms: _314  and  _315
REMARK  127  A    between atoms: _318  and  _320
REMARK  128  A    between atoms: _320  and  _321
REMARK  129  A    between atoms: _323  and  _325
REMARK  130  A    between atoms: _325  and  _326
REMARK  131  A    between atoms: _325  and  _328
REMARK  132  A    between atoms: _328  and  _329
REMARK  133  A    between atoms: _334  and  _335
REMARK  134  A    between atoms: _337  and  _339
REMARK  135  A    between atoms: _339  and  _340
REMARK  136  A    between atoms: _339  and  _342
REMARK  137  A    between atoms: _342  and  _343
REMARK  138  A    between atoms: _348  and  _349
REMARK  139  A    between atoms: _351  and  _353
REMARK  140  A    between atoms: _353  and  _354
REMARK  141  A    between atoms: _353  and  _356
REMARK  142  A    between atoms: _356  and  _357
REMARK  143  A    between atoms: _357  and  _358
REMARK  144  A    between atoms: _361  and  _363
REMARK  145  A    between atoms: _363  and  _364
REMARK  146  A    between atoms: _363  and  _366
REMARK  147  A    between atoms: _366  and  _367
REMARK  148  A    between atoms: _367  and  _368
REMARK  149  A    between atoms: _368  and  _369
REMARK  150  A    between atoms: _378  and  _380
REMARK  151  A    between atoms: _380  and  _381
REMARK  152  A    between atoms: _380  and  _383
REMARK  153  A    between atoms: _383  and  _384
REMARK                            x       y       z     vdW  Elec       q    Type
REMARK                         _______ _______ _______ _____ _____    ______ ____
ROOT
ATOM      1  C   UNL     1      35.843   1.268  -4.859  0.00  0.00    +0.000 C 
ENDROOT
BRANCH   1   2
ATOM      2  CA  UNL     1      36.592   2.436  -5.535  0.00  0.00    +0.000 C 
BRANCH   2   3
ATOM      3  N   UNL     1      35.998   3.737  -5.237  0.00  0.00    +0.000 NA
ATOM      4  H   UNL     1      35.147   4.033  -5.756  0.00  0.00    +0.000 HD
ENDBRANCH   2   3
BRANCH   2   5
ATOM      5  C   UNL     1      36.511   2.218  -7.039  0.00  0.00    +0.000 C 
ATOM      6  O   UNL     1      35.594   2.746  -7.692  0.00  0.00    +0.000 OA
ENDBRANCH   2   5
ENDBRANCH   1   2
BRANCH   1   7
ATOM      7  C   UNL     1      35.680   1.311  -3.332  0.00  0.00    +0.000 C 
BRANCH   7   8
ATOM      8  C   UNL     1      36.944   1.094  -2.558  0.00  0.00    +0.000 C 
ATOM      9  O   UNL     1      38.039   0.726  -3.070  0.00  0.00    +0.000 OA
BRANCH   8  10
ATOM     10  O   UNL     1      36.828   1.354  -1.369  0.00  0.00    +0.000 OA
ATOM     11 ZN   UNL     1      38.400   1.418  -0.194  0.00  0.00    +0.000 Zn
ENDBRANCH   8  10
ENDBRANCH   7   8
ENDBRANCH   1   7
TORSDOF 6
REMARK  Name = ../refined-set-2016/3bpc/3bpc_pocket.pdb
REMARK  153 active torsions:
REMARK  status: ('A' for Active; 'I' for Inactive)
REMARK    1  A    between atoms: _1  and  _3
REMARK    2  A    between atoms: _3  and  _4
REMARK    3  A    between atoms: _3  and  _6
REMARK    4  A    between atoms: _6  and  _7
REMARK    5  A    between atoms: _12  and  _14
REMARK    6  A    between atoms: _14  and  _15
REMARK    7  A    between atoms: _14  and  _17
REMARK    8  A    between atoms: _17  and  _18
REMARK    9  A    between atoms: _20  and  _22
REMARK   10  A    between atoms: _22  and  _23
REMARK   11  A    between atoms: _22  and  _25
REMARK   12  A    between atoms: _25  and  _26
REMARK   13  A    between atoms: _26  and  _27
REMARK   14  A    between atoms: _27  and  _28
REMARK   15  A    between atoms: _37  and  _39
REMARK   16  A    between atoms: _39  and  _40
REMARK   17  A    between atoms: _39  and  _42
REMARK   18  A    between atoms: _42  and  _43
REMARK   19  A    between atoms: _46  and  _48
REMARK   20  A    between atoms: _48  and  _49
REMARK   21  A    between atoms: _48  and  _51
REMARK   22  A    between atoms: _51  and  _52
REMARK   23  A    between atoms: _52  and  _53
REMARK   24  A    between atoms: _53  and  _54
REMARK   25  A    between atoms: _63  and  _65
REMARK   26  A    between atoms: _65  and  _66
REMARK   27  A    between atoms: _65  and  _68
REMARK   28  A    between atoms: _68  and  _69
REMARK   29  A    between atoms: _69  and  _70
REMARK   30  A    between atoms: _70  and  _71
REMARK   31  A    between atoms: _71  and  _72
REMARK   32  A    between atoms: _76  and  _78
REMARK   33  A    between atoms: _78  and  _79
REMARK   34  A    between atoms: _78  and  _81
REMARK   35  A    between atoms: _81  and  _82
REMARK   36  A    between atoms: _87  and  _88
REMARK   37  A    between atoms: _90  and  _92
REMARK   38  A    between atoms: _92  and  _93
REMARK   39  A    between atoms: _92  and  _95
REMARK   40  A    between atoms: _95  and  _96
REMARK   41  A    between atoms: _106  and  _108
REMARK   42  A    between atoms: _108  and  _109
REMARK   43  A    between atoms: _108  and  _111
REMARK   44  A    between atoms: _111  and  _112
REMARK   45  A    between atoms: _112  and  _113
REMARK   46  A    between atoms: _113  and  _114
REMARK   47  A    between atoms: _114  and  _115
REMARK   48  A    between atoms: _119  and  _121
REMARK   49  A    between atoms: _121  and  _122
REMARK   50  A    between atoms: _121  and  _124
REMARK   51  A    between atoms: _124  and  _125
REMARK   52  A    between atoms: _125  and  _126
REMARK   53  A    between atoms: _131  and  _133
REMARK   54  A    between atoms: _133  and  _134
REMARK   55  A    between atoms: _133  and  _136
REMARK   56  A    between atoms: _136  and  _137
REMARK   57  A    between atoms: _139  and  _141
REMARK   58  A    between atoms: _141  and  _142
REMARK   59  A    between atoms: _141  and  _144
REMARK   60  A    between atoms: _144  and  _145
REMARK   61  A    between atoms: _150  and  _151
REMARK   62  A    between atoms: _153  and  _155
REMARK   63  A    between atoms: _155  and  _156
REMARK   64  A    between atoms: _155  and  _158
REMARK   65  A    between atoms: _158  and  _159
REMARK   66  A    between atoms: _164  and  _166
REMARK   67  A    between atoms: _166  and  _167
REMARK   68  A    between atoms: _166  and  _169
REMARK   69  A    between atoms: _169  and  _170
REMARK   70  A    between atoms: _173  and  _175
REMARK   71  A    between atoms: _175  and  _176
REMARK   72  A    between atoms: _175  and  _178
REMARK   73  A    between atoms: _178  and  _179
REMARK   74  A    between atoms: _179  and  _180
REMARK   75  A    between atoms: _180  and  _181
REMARK   76  A    between atoms: _190  and  _192
REMARK   77  A    between atoms: _192  and  _193
REMARK   78  A    between atoms: _192  and  _195
REMARK   79  A    between atoms: _195  and  _196
REMARK   80  A    between atoms: _201  and  _202
REMARK   81  A    between atoms: _204  and  _206
REMARK   82  A    between atoms: _206  and  _207
REMARK   83  A    between atoms: _206  and  _209
REMARK   84  A    between atoms: _209  and  _210
REMARK   85  A    between atoms: _216  and  _218
REMARK   86  A    between atoms: _218  and  _219
REMARK   87  A    between atoms: _218  and  _221
REMARK   88  A    between atoms: _221  and  _222
REMARK   89  A    between atoms: _225  and  _227
REMARK   90  A    between atoms: _227  and  _228
REMARK   91  A    between atoms: _227  and  _230
REMARK   92  A    between atoms: _230  and  _231
REMARK   93  A    between atoms: _231  and  _232
REMARK   94  A    between atoms: _232  and  _233
REMARK   95  A    between atoms: _242  and  _244
REMARK   96  A    between atoms: _244  and  _245
REMARK   97  A    between atoms: _244  and  _247
REMARK   98  A    between atoms: _247  and  _248
REMARK   99  A    between atoms: _253  and  _255
REMARK  100  A    between atoms: _255  and  _256
REMARK  101  A    between atoms: _259  and  _261
REMARK  102  A    between atoms: _261  and  _262
REMARK  103  A    between atoms: _261  and  _264
REMARK  104  A    between atoms: _264  and  _265
REMARK  105  A    between atoms: _270  and  _272
REMARK  106  A    between atoms: _272  and  _273
REMARK  107  A    between atoms: _272  and  _275
REMARK  108  A    between atoms: _275  and  _276
REMARK  109  A    between atoms: _279  and  _281
REMARK  110  A    between atoms: _281  and  _282
REMARK  111  A    between atoms: _281  and  _284
REMARK  112  A    between atoms: _284  and  _285
REMARK  113  A    between atoms: _285  and  _286
REMARK  114  A    between atoms: _286  and  _288
REMARK  115  A    between atoms: _289  and  _291
REMARK  116  A    between atoms: _291  and  _292
REMARK  117  A    between atoms: _291  and  _294
REMARK  118  A    between atoms: _294  and  _295
REMARK  119  A    between atoms: _298  and  _300
REMARK  120  A    between atoms: _300  and  _301
REMARK  121  A    between atoms: _300  and  _303
REMARK  122  A    between atoms: _303  and  _304
REMARK  123  A    between atoms: _309  and  _311
REMARK  124  A    between atoms: _311  and  _312
REMARK  125  A    between atoms: _311  and  _314
REMARK  126  A    between atoms: _314  and  _315
REMARK  127  A    between atoms: _318  and  _320
REMARK  128  A    between atoms: _320  and  _321
REMARK  129  A    between atoms: _323  and  _325
REMARK  130  A    between atoms: _325  and  _326
REMARK  131  A    between atoms: _325  and  _328
REMARK  132  A    between atoms: _328  and  _329
REMARK  133  A    between atoms: _334  and  _335
REMARK  134  A    between atoms: _337  and  _339
REMARK  135  A    between atoms: _339  and  _340
REMARK  136  A    between atoms: _339  and  _342
REMARK  137  A    between atoms: _342  and  _343
REMARK  138  A    between atoms: _348  and  _349
REMARK  139  A    between atoms: _351  and  _353
REMARK  140  A    between atoms: _353  and  _354
REMARK  141  A    between atoms: _353  and  _356
REMARK  142  A    between atoms: _356  and  _357
REMARK  143  A    between atoms: _357  and  _358
REMARK  144  A    between atoms: _361  and  _363
REMARK  145  A    between atoms: _363  and  _364
REMARK  146  A    between atoms: _363  and  _366
REMARK  147  A    between atoms: _366  and  _367
REMARK  148  A    between atoms: _367  and  _368
REMARK  149  A    between atoms: _368  and  _369
REMARK  150  A    between atoms: _378  and  _380
REMARK  151  A    between atoms: _380  and  _381
REMARK  152  A    between atoms: _380  and  _383
REMARK  153  A    between atoms: _383  and  _384
REMARK                            x       y       z     vdW  Elec       q    Type
REMARK                         _______ _______ _______ _____ _____    ______ ____
ROOT
ATOM      1  CA  TYR A   6      19.050  -1.166  -1.062  0.00  0.00    +0.153 C 
ENDROOT
BRANCH   1   4
ATOM      2  C   TYR A   5      19.395  -0.780   1.313  0.00  0.00    +0.241 C 
ATOM      3  O   TYR A   5      19.144  -1.941   1.593  0.00  0.00    -0.273 OA
ATOM      4  N   TYR A   6      19.445  -0.326   0.065  0.00  0.00    -0.297 N 
ATOM      5  H   TYR A   6      19.771   0.645  -0.112  0.00  0.00    +0.150 HD
BRANCH   2   6
ATOM      6  CA  TYR A   5      19.657   0.238   2.424  0.00  0.00    +0.153 C 
BRANCH   6   9
ATOM      7  C   GLY A   4      21.881   1.195   2.938  0.00  0.00    +0.243 C 
ATOM      8  O   GLY A   4      22.033   0.508   3.962  0.00  0.00    -0.273 OA
ATOM      9  N   TYR A   5      20.826   1.083   2.128  0.00  0.00    -0.297 N 
ATOM     10  H   TYR A   5      20.830   1.622   1.239  0.00  0.00    +0.150 HD
BRANCH   7  11
ATOM     11  CA  GLY A   4      22.924   2.237   2.556  0.00  0.00    +0.176 C 
BRANCH  11  14
ATOM     12  C   ASP A   3      22.046   3.949   1.041  0.00  0.00    +0.241 C 
ATOM     13  O   ASP A   3      21.581   4.603   1.964  0.00  0.00    -0.273 OA
ATOM     14  N   GLY A   4      22.693   2.800   1.228  0.00  0.00    -0.295 N 
ATOM     15  H   GLY A   4      23.047   2.284   0.397  0.00  0.00    +0.150 HD
BRANCH  12  16
ATOM     16  CA  ASP A   3      21.825   4.402  -0.404  0.00  0.00    +0.160 C 
BRANCH  16  18
ATOM     17  C   HIS A   2      23.245   3.499  -2.203  0.00  0.00    +0.241 C 
ATOM     18  N   ASP A   3      22.199   3.347  -1.376  0.00  0.00    -0.297 N 
ATOM     19  H   ASP A   3      21.639   2.471  -1.418  0.00  0.00    +0.150 HD
ATOM     20  O   HIS A   2      23.916   4.523  -2.263  0.00  0.00    -0.273 OA
BRANCH  17  21
ATOM     21  CA  HIS A   2      23.642   2.270  -3.040  0.00  0.00    +0.155 C 
BRANCH  21  23
ATOM     22  C   ASP A   1      23.258   3.098  -5.387  0.00  0.00    +0.239 C 
ATOM     23  N   HIS A   2      24.038   2.570  -4.445  0.00  0.00    -0.297 N 
ATOM     24  H   HIS A   2      25.017   2.346  -4.716  0.00  0.00    +0.150 HD
ATOM     25  O   ASP A   1      22.169   3.639  -5.157  0.00  0.00    -0.274 OA
BRANCH  22  26
ATOM     26  CA  ASP A   1      23.810   3.052  -6.819  0.00  0.00    +0.156 C 
BRANCH  26  27
ATOM     27  N   ASP A   1      23.363   4.285  -7.491  0.00  0.00    -0.238 NA
ATOM     28  H   ASP A   1      23.658   5.196  -7.085  0.00  0.00    +0.142 HD
ENDBRANCH  26  27
BRANCH  26  29
ATOM     29  CB  ASP A   1      25.348   3.016  -6.856  0.00  0.00    +0.140 C 
BRANCH  29  30
ATOM     30  CG  ASP A   1      25.991   1.640  -6.530  0.00  0.00    +0.367 C 
ATOM     31  OD2 ASP A   1      25.442   0.762  -5.818  0.00  0.00    -0.246 OA
ATOM     32  OD1 ASP A   1      27.140   1.465  -7.020  0.00  0.00    -0.246 OA
ENDBRANCH  29  30
ENDBRANCH  26  29
ENDBRANCH  22  26
ENDBRANCH  21  23
BRANCH  21  33
ATOM     33  CB  HIS A   2      24.831   1.614  -2.353  0.00  0.00    +0.076 C 
BRANCH  33  34
ATOM     34  CG  HIS A   2      24.480   0.832  -1.128  0.00  0.00    +0.082 A 
ATOM     35  ND1 HIS A   2      25.250   0.851   0.014  0.00  0.00    -0.227 NA
ATOM     36  CE1 HIS A   2      24.716   0.039   0.912  0.00  0.00    +0.199 A 
ATOM     37  NE2 HIS A   2      23.620  -0.490   0.398  0.00  0.00    -0.221 NA
ATOM     38  CD2 HIS A   2      23.455  -0.016  -0.882  0.00  0.00    +0.115 A 
ENDBRANCH  33  34
ENDBRANCH  21  33
ENDBRANCH  17  21
ENDBRANCH  16  18
BRANCH  16  39
ATOM     39  CB  ASP A   3      20.340   4.773  -0.587  0.00  0.00    +0.143 C 
BRANCH  39  40
ATOM     40  CG  ASP A   3      19.404   3.601  -0.268  0.00  0.00    +0.367 C 
ATOM     41  OD2 ASP A   3      19.886   2.459  -0.128  0.00  0.00    -0.246 OA
ATOM     42  OD1 ASP A   3      18.185   3.825  -0.132  0.00  0.00    -0.246 OA
ENDBRANCH  39  40
ENDBRANCH  16  39
ENDBRANCH  12  16
ENDBRANCH  11  14
ENDBRANCH   7  11
ENDBRANCH   6   9
BRANCH   6  43
ATOM     43  CB  TYR A   5      18.421   1.109   2.680  0.00  0.00    +0.055 C 
BRANCH  43  44
ATOM     44  CG  TYR A   5      18.643   1.958   3.912  0.00  0.00    -0.020 A 
ATOM     45  CD2 TYR A   5      18.644   1.366   5.176  0.00  0.00    -0.001 A 
ATOM     46  CE2 TYR A   5      18.894   2.110   6.314  0.00  0.00    +0.036 A 
ATOM     47  CZ  TYR A   5      19.156   3.458   6.181  0.00  0.00    +0.134 A 
ATOM     48  CE1 TYR A   5      19.183   4.076   4.925  0.00  0.00    +0.036 A 
ATOM     49  CD1 TYR A   5      18.939   3.327   3.805  0.00  0.00    -0.001 A 
BRANCH  47  50
ATOM     50  OH  TYR A   5      19.407   4.180   7.333  0.00  0.00    -0.506 OA
ATOM     51  HH  TYR A   5      19.578   5.126   7.097  0.00  0.00    +0.292 HD
ENDBRANCH  47  50
ENDBRANCH  43  44
ENDBRANCH   6  43
ENDBRANCH   2   6
ENDBRANCH   1   4
BRANCH   1  52
ATOM     52  C   TYR A   6      20.272  -1.516  -1.888  0.00  0.00    +0.241 C 
ATOM     53  O   TYR A   6      21.120  -0.643  -2.166  0.00  0.00    -0.273 OA
ATOM     54  N   GLU A   7      20.309  -2.782  -2.315  0.00  0.00    -0.297 N 
ATOM     55  H   GLU A   7      19.606  -3.453  -1.945  0.00  0.00    +0.150 HD
BRANCH  54  56
ATOM     56  CA  GLU A   7      21.293  -3.261  -3.277  0.00  0.00    +0.149 C 
BRANCH  56  57
ATOM     57  C   GLU A   7      20.690  -3.268  -4.675  0.00  0.00    +0.241 C 
ATOM     58  O   GLU A   7      20.006  -4.212  -5.056  0.00  0.00    -0.273 OA
ATOM     59  N   ARG A   8      20.928  -2.178  -5.406  0.00  0.00    -0.297 N 
ATOM     60  H   ARG A   8      21.554  -1.441  -5.023  0.00  0.00    +0.150 HD
BRANCH  59  61
ATOM     61  CA  ARG A   8      20.339  -1.988  -6.724  0.00  0.00    +0.149 C 
BRANCH  61  62
ATOM     62  C   ARG A   8      20.907  -0.736  -7.424  0.00  0.00    +0.241 C 
ATOM     63  O   ARG A   8      21.323   0.223  -6.786  0.00  0.00    -0.273 OA
ATOM     64  N   PHE A   9      20.973  -0.774  -8.751  0.00  0.00    -0.298 N 
ATOM     65  H   PHE A   9      20.910  -1.684  -9.250  0.00  0.00    +0.150 HD
BRANCH  64  66
ATOM     66  CA  PHE A   9      21.135   0.470  -9.511  0.00  0.00    +0.141 C 
BRANCH  66  67
ATOM     67  C   PHE A   9      19.747   0.891 -10.033  0.00  0.00    +0.227 C 
ATOM     68  O   PHE A   9      19.232   0.334 -11.026  0.00  0.00    -0.286 OA
ENDBRANCH  66  67
BRANCH  66  69
ATOM     69  CB  PHE A   9      22.092   0.313 -10.718  0.00  0.00    +0.054 C 
BRANCH  69  70
ATOM     70  CG  PHE A   9      23.530   0.050 -10.391  0.00  0.00    -0.020 A 
ATOM     71  CD2 PHE A   9      24.003  -0.146  -9.065  0.00  0.00    -0.004 A 
ATOM     72  CE2 PHE A   9      25.351  -0.408  -8.815  0.00  0.00    -0.000 A 
ATOM     73  CZ  PHE A   9      26.262  -0.551  -9.868  0.00  0.00    -0.000 A 
ATOM     74  CE1 PHE A   9      25.807  -0.388 -11.203  0.00  0.00    -0.000 A 
ATOM     75  CD1 PHE A   9      24.442  -0.108 -11.443  0.00  0.00    -0.004 A 
ENDBRANCH  69  70
ENDBRANCH  66  69
ENDBRANCH  64  66
ENDBRANCH  61  62
BRANCH  61  76
ATOM     76  CB  ARG A   8      18.781  -1.926  -6.659  0.00  0.00    +0.033 C 
BRANCH  76  77
ATOM     77  CG  ARG A   8      18.236  -0.643  -5.923  0.00  0.00    +0.045 C 
BRANCH  77  78
ATOM     78  CD  ARG A   8      16.749  -0.582  -5.849  0.00  0.00    +0.174 C 
BRANCH  78  79
ATOM     79  NE  ARG A   8      16.368   0.570  -5.016  0.00  0.00    -0.265 N 
ATOM     80  CZ  ARG A   8      15.176   0.709  -4.430  0.00  0.00    +0.342 C 
ATOM     81  NH2 ARG A   8      14.929   1.781  -3.681  0.00  0.00    -0.292 N 
ATOM     82 HH21 ARG A   8      14.002   1.893  -3.223  0.00  0.00    +0.255 HD
ATOM     83 HH22 ARG A   8      15.663   2.507  -3.554  0.00  0.00    +0.255 HD
ATOM     84  NH1 ARG A   8      14.213  -0.174  -4.641  0.00  0.00    -0.292 N 
ATOM     85 HH11 ARG A   8      13.289  -0.056  -4.179  0.00  0.00    +0.255 HD
ATOM     86 HH12 ARG A   8      14.381  -0.986  -5.269  0.00  0.00    +0.255 HD
ATOM     87  HE  ARG A   8      17.071   1.323  -4.875  0.00  0.00    +0.259 HD
ENDBRANCH  78  79
ENDBRANCH  77  78
ENDBRANCH  76  77
ENDBRANCH  61  76
ENDBRANCH  59  61
ENDBRANCH  56  57
BRANCH  56  88
ATOM     88  CB  GLU A   7      21.813  -4.641  -2.857  0.00  0.00    +0.041 C 
BRANCH  88  89
ATOM     89  CG  GLU A   7      22.690  -4.583  -1.559  0.00  0.00    +0.116 C 
BRANCH  89  90
ATOM     90  CD  GLU A   7      23.965  -3.772  -1.750  0.00  0.00    +0.365 C 
ATOM     91  OE2 GLU A   7      24.550  -3.286  -0.738  0.00  0.00    -0.246 OA
ATOM     92  OE1 GLU A   7      24.411  -3.611  -2.920  0.00  0.00    -0.246 OA
ENDBRANCH  89  90
ENDBRANCH  88  89
ENDBRANCH  56  88
ENDBRANCH  54  56
ENDBRANCH   1  52
BRANCH   1  93
ATOM     93  CB  TYR A   6      18.022  -0.456  -1.948  0.00  0.00    +0.055 C 
BRANCH  93  94
ATOM     94  CG  TYR A   6      16.643  -0.326  -1.334  0.00  0.00    -0.020 A 
ATOM     95  CD2 TYR A   6      16.321   0.764  -0.541  0.00  0.00    -0.001 A 
ATOM     96  CE2 TYR A   6      15.049   0.892   0.051  0.00  0.00    +0.036 A 
ATOM     97  CZ  TYR A   6      14.084  -0.101  -0.200  0.00  0.00    +0.134 A 
ATOM     98  CE1 TYR A   6      14.403  -1.215  -0.986  0.00  0.00    +0.036 A 
ATOM     99  CD1 TYR A   6      15.679  -1.315  -1.545  0.00  0.00    -0.001 A 
BRANCH  97 100
ATOM    100  OH  TYR A   6      12.820  -0.012   0.350  0.00  0.00    -0.506 OA
ATOM    101  HH  TYR A   6      12.282  -0.793   0.066  0.00  0.00    +0.292 HD
ENDBRANCH  97 100
ENDBRANCH  93  94
ENDBRANCH   1  93
TORSDOF 39
REMARK  Name = ../refined-set-2016/3bpc/3bpc_pocket.pdb
REMARK  153 active torsions:
REMARK  status: ('A' for Active; 'I' for Inactive)
REMARK    1  A    between atoms: _1  and  _3
REMARK    2  A    between atoms: _3  and  _4
REMARK    3  A    between atoms: _3  and  _6
REMARK    4  A    between atoms: _6  and  _7
REMARK    5  A    between atoms: _12  and  _14
REMARK    6  A    between atoms: _14  and  _15
REMARK    7  A    between atoms: _14  and  _17
REMARK    8  A    between atoms: _17  and  _18
REMARK    9  A    between atoms: _20  and  _22
REMARK   10  A    between atoms: _22  and  _23
REMARK   11  A    between atoms: _22  and  _25
REMARK   12  A    between atoms: _25  and  _26
REMARK   13  A    between atoms: _26  and  _27
REMARK   14  A    between atoms: _27  and  _28
REMARK   15  A    between atoms: _37  and  _39
REMARK   16  A    between atoms: _39  and  _40
REMARK   17  A    between atoms: _39  and  _42
REMARK   18  A    between atoms: _42  and  _43
REMARK   19  A    between atoms: _46  and  _48
REMARK   20  A    between atoms: _48  and  _49
REMARK   21  A    between atoms: _48  and  _51
REMARK   22  A    between atoms: _51  and  _52
REMARK   23  A    between atoms: _52  and  _53
REMARK   24  A    between atoms: _53  and  _54
REMARK   25  A    between atoms: _63  and  _65
REMARK   26  A    between atoms: _65  and  _66
REMARK   27  A    between atoms: _65  and  _68
REMARK   28  A    between atoms: _68  and  _69
REMARK   29  A    between atoms: _69  and  _70
REMARK   30  A    between atoms: _70  and  _71
REMARK   31  A    between atoms: _71  and  _72
REMARK   32  A    between atoms: _76  and  _78
REMARK   33  A    between atoms: _78  and  _79
REMARK   34  A    between atoms: _78  and  _81
REMARK   35  A    between atoms: _81  and  _82
REMARK   36  A    between atoms: _87  and  _88
REMARK   37  A    between atoms: _90  and  _92
REMARK   38  A    between atoms: _92  and  _93
REMARK   39  A    between atoms: _92  and  _95
REMARK   40  A    between atoms: _95  and  _96
REMARK   41  A    between atoms: _106  and  _108
REMARK   42  A    between atoms: _108  and  _109
REMARK   43  A    between atoms: _108  and  _111
REMARK   44  A    between atoms: _111  and  _112
REMARK   45  A    between atoms: _112  and  _113
REMARK   46  A    between atoms: _113  and  _114
REMARK   47  A    between atoms: _114  and  _115
REMARK   48  A    between atoms: _119  and  _121
REMARK   49  A    between atoms: _121  and  _122
REMARK   50  A    between atoms: _121  and  _124
REMARK   51  A    between atoms: _124  and  _125
REMARK   52  A    between atoms: _125  and  _126
REMARK   53  A    between atoms: _131  and  _133
REMARK   54  A    between atoms: _133  and  _134
REMARK   55  A    between atoms: _133  and  _136
REMARK   56  A    between atoms: _136  and  _137
REMARK   57  A    between atoms: _139  and  _141
REMARK   58  A    between atoms: _141  and  _142
REMARK   59  A    between atoms: _141  and  _144
REMARK   60  A    between atoms: _144  and  _145
REMARK   61  A    between atoms: _150  and  _151
REMARK   62  A    between atoms: _153  and  _155
REMARK   63  A    between atoms: _155  and  _156
REMARK   64  A    between atoms: _155  and  _158
REMARK   65  A    between atoms: _158  and  _159
REMARK   66  A    between atoms: _164  and  _166
REMARK   67  A    between atoms: _166  and  _167
REMARK   68  A    between atoms: _166  and  _169
REMARK   69  A    between atoms: _169  and  _170
REMARK   70  A    between atoms: _173  and  _175
REMARK   71  A    between atoms: _175  and  _176
REMARK   72  A    between atoms: _175  and  _178
REMARK   73  A    between atoms: _178  and  _179
REMARK   74  A    between atoms: _179  and  _180
REMARK   75  A    between atoms: _180  and  _181
REMARK   76  A    between atoms: _190  and  _192
REMARK   77  A    between atoms: _192  and  _193
REMARK   78  A    between atoms: _192  and  _195
REMARK   79  A    between atoms: _195  and  _196
REMARK   80  A    between atoms: _201  and  _202
REMARK   81  A    between atoms: _204  and  _206
REMARK   82  A    between atoms: _206  and  _207
REMARK   83  A    between atoms: _206  and  _209
REMARK   84  A    between atoms: _209  and  _210
REMARK   85  A    between atoms: _216  and  _218
REMARK   86  A    between atoms: _218  and  _219
REMARK   87  A    between atoms: _218  and  _221
REMARK   88  A    between atoms: _221  and  _222
REMARK   89  A    between atoms: _225  and  _227
REMARK   90  A    between atoms: _227  and  _228
REMARK   91  A    between atoms: _227  and  _230
REMARK   92  A    between atoms: _230  and  _231
REMARK   93  A    between atoms: _231  and  _232
REMARK   94  A    between atoms: _232  and  _233
REMARK   95  A    between atoms: _242  and  _244
REMARK   96  A    between atoms: _244  and  _245
REMARK   97  A    between atoms: _244  and  _247
REMARK   98  A    between atoms: _247  and  _248
REMARK   99  A    between atoms: _253  and  _255
REMARK  100  A    between atoms: _255  and  _256
REMARK  101  A    between atoms: _259  and  _261
REMARK  102  A    between atoms: _261  and  _262
REMARK  103  A    between atoms: _261  and  _264
REMARK  104  A    between atoms: _264  and  _265
REMARK  105  A    between atoms: _270  and  _272
REMARK  106  A    between atoms: _272  and  _273
REMARK  107  A    between atoms: _272  and  _275
REMARK  108  A    between atoms: _275  and  _276
REMARK  109  A    between atoms: _279  and  _281
REMARK  110  A    between atoms: _281  and  _282
REMARK  111  A    between atoms: _281  and  _284
REMARK  112  A    between atoms: _284  and  _285
REMARK  113  A    between atoms: _285  and  _286
REMARK  114  A    between atoms: _286  and  _288
REMARK  115  A    between atoms: _289  and  _291
REMARK  116  A    between atoms: _291  and  _292
REMARK  117  A    between atoms: _291  and  _294
REMARK  118  A    between atoms: _294  and  _295
REMARK  119  A    between atoms: _298  and  _300
REMARK  120  A    between atoms: _300  and  _301
REMARK  121  A    between atoms: _300  and  _303
REMARK  122  A    between atoms: _303  and  _304
REMARK  123  A    between atoms: _309  and  _311
REMARK  124  A    between atoms: _311  and  _312
REMARK  125  A    between atoms: _311  and  _314
REMARK  126  A    between atoms: _314  and  _315
REMARK  127  A    between atoms: _318  and  _320
REMARK  128  A    between atoms: _320  and  _321
REMARK  129  A    between atoms: _323  and  _325
REMARK  130  A    between atoms: _325  and  _326
REMARK  131  A    between atoms: _325  and  _328
REMARK  132  A    between atoms: _328  and  _329
REMARK  133  A    between atoms: _334  and  _335
REMARK  134  A    between atoms: _337  and  _339
REMARK  135  A    between atoms: _339  and  _340
REMARK  136  A    between atoms: _339  and  _342
REMARK  137  A    between atoms: _342  and  _343
REMARK  138  A    between atoms: _348  and  _349
REMARK  139  A    between atoms: _351  and  _353
REMARK  140  A    between atoms: _353  and  _354
REMARK  141  A    between atoms: _353  and  _356
REMARK  142  A    between atoms: _356  and  _357
REMARK  143  A    between atoms: _357  and  _358
REMARK  144  A    between atoms: _361  and  _363
REMARK  145  A    between atoms: _363  and  _364
REMARK  146  A    between atoms: _363  and  _366
REMARK  147  A    between atoms: _366  and  _367
REMARK  148  A    between atoms: _367  and  _368
REMARK  149  A    between atoms: _368  and  _369
REMARK  150  A    between atoms: _378  and  _380
REMARK  151  A    between atoms: _380  and  _381
REMARK  152  A    between atoms: _380  and  _383
REMARK  153  A    between atoms: _383  and  _384
REMARK                            x       y       z     vdW  Elec       q    Type
REMARK                         _______ _______ _______ _____ _____    ______ ____
ROOT
ATOM      1  O   HOH     1      25.274  -5.039   3.531  0.00  0.00    +0.000 OA
ENDROOT
TORSDOF 0
REMARK  Name = ../refined-set-2016/3bpc/3bpc_pocket.pdb
REMARK  153 active torsions:
REMARK  status: ('A' for Active; 'I' for Inactive)
REMARK    1  A    between atoms: _1  and  _3
REMARK    2  A    between atoms: _3  and  _4
REMARK    3  A    between atoms: _3  and  _6
REMARK    4  A    between atoms: _6  and  _7
REMARK    5  A    between atoms: _12  and  _14
REMARK    6  A    between atoms: _14  and  _15
REMARK    7  A    between atoms: _14  and  _17
REMARK    8  A    between atoms: _17  and  _18
REMARK    9  A    between atoms: _20  and  _22
REMARK   10  A    between atoms: _22  and  _23
REMARK   11  A    between atoms: _22  and  _25
REMARK   12  A    between atoms: _25  and  _26
REMARK   13  A    between atoms: _26  and  _27
REMARK   14  A    between atoms: _27  and  _28
REMARK   15  A    between atoms: _37  and  _39
REMARK   16  A    between atoms: _39  and  _40
REMARK   17  A    between atoms: _39  and  _42
REMARK   18  A    between atoms: _42  and  _43
REMARK   19  A    between atoms: _46  and  _48
REMARK   20  A    between atoms: _48  and  _49
REMARK   21  A    between atoms: _48  and  _51
REMARK   22  A    between atoms: _51  and  _52
REMARK   23  A    between atoms: _52  and  _53
REMARK   24  A    between atoms: _53  and  _54
REMARK   25  A    between atoms: _63  and  _65
REMARK   26  A    between atoms: _65  and  _66
REMARK   27  A    between atoms: _65  and  _68
REMARK   28  A    between atoms: _68  and  _69
REMARK   29  A    between atoms: _69  and  _70
REMARK   30  A    between atoms: _70  and  _71
REMARK   31  A    between atoms: _71  and  _72
REMARK   32  A    between atoms: _76  and  _78
REMARK   33  A    between atoms: _78  and  _79
REMARK   34  A    between atoms: _78  and  _81
REMARK   35  A    between atoms: _81  and  _82
REMARK   36  A    between atoms: _87  and  _88
REMARK   37  A    between atoms: _90  and  _92
REMARK   38  A    between atoms: _92  and  _93
REMARK   39  A    between atoms: _92  and  _95
REMARK   40  A    between atoms: _95  and  _96
REMARK   41  A    between atoms: _106  and  _108
REMARK   42  A    between atoms: _108  and  _109
REMARK   43  A    between atoms: _108  and  _111
REMARK   44  A    between atoms: _111  and  _112
REMARK   45  A    between atoms: _112  and  _113
REMARK   46  A    between atoms: _113  and  _114
REMARK   47  A    between atoms: _114  and  _115
REMARK   48  A    between atoms: _119  and  _121
REMARK   49  A    between atoms: _121  and  _122
REMARK   50  A    between atoms: _121  and  _124
REMARK   51  A    between atoms: _124  and  _125
REMARK   52  A    between atoms: _125  and  _126
REMARK   53  A    between atoms: _131  and  _133
REMARK   54  A    between atoms: _133  and  _134
REMARK   55  A    between atoms: _133  and  _136
REMARK   56  A    between atoms: _136  and  _137
REMARK   57  A    between atoms: _139  and  _141
REMARK   58  A    between atoms: _141  and  _142
REMARK   59  A    between atoms: _141  and  _144
REMARK   60  A    between atoms: _144  and  _145
REMARK   61  A    between atoms: _150  and  _151
REMARK   62  A    between atoms: _153  and  _155
REMARK   63  A    between atoms: _155  and  _156
REMARK   64  A    between atoms: _155  and  _158
REMARK   65  A    between atoms: _158  and  _159
REMARK   66  A    between atoms: _164  and  _166
REMARK   67  A    between atoms: _166  and  _167
REMARK   68  A    between atoms: _166  and  _169
REMARK   69  A    between atoms: _169  and  _170
REMARK   70  A    between atoms: _173  and  _175
REMARK   71  A    between atoms: _175  and  _176
REMARK   72  A    between atoms: _175  and  _178
REMARK   73  A    between atoms: _178  and  _179
REMARK   74  A    between atoms: _179  and  _180
REMARK   75  A    between atoms: _180  and  _181
REMARK   76  A    between atoms: _190  and  _192
REMARK   77  A    between atoms: _192  and  _193
REMARK   78  A    between atoms: _192  and  _195
REMARK   79  A    between atoms: _195  and  _196
REMARK   80  A    between atoms: _201  and  _202
REMARK   81  A    between atoms: _204  and  _206
REMARK   82  A    between atoms: _206  and  _207
REMARK   83  A    between atoms: _206  and  _209
REMARK   84  A    between atoms: _209  and  _210
REMARK   85  A    between atoms: _216  and  _218
REMARK   86  A    between atoms: _218  and  _219
REMARK   87  A    between atoms: _218  and  _221
REMARK   88  A    between atoms: _221  and  _222
REMARK   89  A    between atoms: _225  and  _227
REMARK   90  A    between atoms: _227  and  _228
REMARK   91  A    between atoms: _227  and  _230
REMARK   92  A    between atoms: _230  and  _231
REMARK   93  A    between atoms: _231  and  _232
REMARK   94  A    between atoms: _232  and  _233
REMARK   95  A    between atoms: _242  and  _244
REMARK   96  A    between atoms: _244  and  _245
REMARK   97  A    between atoms: _244  and  _247
REMARK   98  A    between atoms: _247  and  _248
REMARK   99  A    between atoms: _253  and  _255
REMARK  100  A    between atoms: _255  and  _256
REMARK  101  A    between atoms: _259  and  _261
REMARK  102  A    between atoms: _261  and  _262
REMARK  103  A    between atoms: _261  and  _264
REMARK  104  A    between atoms: _264  and  _265
REMARK  105  A    between atoms: _270  and  _272
REMARK  106  A    between atoms: _272  and  _273
REMARK  107  A    between atoms: _272  and  _275
REMARK  108  A    between atoms: _275  and  _276
REMARK  109  A    between atoms: _279  and  _281
REMARK  110  A    between atoms: _281  and  _282
REMARK  111  A    between atoms: _281  and  _284
REMARK  112  A    between atoms: _284  and  _285
REMARK  113  A    between atoms: _285  and  _286
REMARK  114  A    between atoms: _286  and  _288
REMARK  115  A    between atoms: _289  and  _291
REMARK  116  A    between atoms: _291  and  _292
REMARK  117  A    between atoms: _291  and  _294
REMARK  118  A    between atoms: _294  and  _295
REMARK  119  A    between atoms: _298  and  _300
REMARK  120  A    between atoms: _300  and  _301
REMARK  121  A    between atoms: _300  and  _303
REMARK  122  A    between atoms: _303  and  _304
REMARK  123  A    between atoms: _309  and  _311
REMARK  124  A    between atoms: _311  and  _312
REMARK  125  A    between atoms: _311  and  _314
REMARK  126  A    between atoms: _314  and  _315
REMARK  127  A    between atoms: _318  and  _320
REMARK  128  A    between atoms: _320  and  _321
REMARK  129  A    between atoms: _323  and  _325
REMARK  130  A    between atoms: _325  and  _326
REMARK  131  A    between atoms: _325  and  _328
REMARK  132  A    between atoms: _328  and  _329
REMARK  133  A    between atoms: _334  and  _335
REMARK  134  A    between atoms: _337  and  _339
REMARK  135  A    between atoms: _339  and  _340
REMARK  136  A    between atoms: _339  and  _342
REMARK  137  A    between atoms: _342  and  _343
REMARK  138  A    between atoms: _348  and  _349
REMARK  139  A    between atoms: _351  and  _353
REMARK  140  A    between atoms: _353  and  _354
REMARK  141  A    between atoms: _353  and  _356
REMARK  142  A    between atoms: _356  and  _357
REMARK  143  A    between atoms: _357  and  _358
REMARK  144  A    between atoms: _361  and  _363
REMARK  145  A    between atoms: _363  and  _364
REMARK  146  A    between atoms: _363  and  _366
REMARK  147  A    between atoms: _366  and  _367
REMARK  148  A    between atoms: _367  and  _368
REMARK  149  A    between atoms: _368  and  _369
REMARK  150  A    between atoms: _378  and  _380
REMARK  151  A    between atoms: _380  and  _381
REMARK  152  A    between atoms: _380  and  _383
REMARK  153  A    between atoms: _383  and  _384
REMARK                            x       y       z     vdW  Elec       q    Type
REMARK                         _______ _______ _______ _____ _____    ______ ____
ROOT
ATOM      1  O   HOH     1      28.193  -9.459   5.899  0.00  0.00    +0.000 OA
ENDROOT
TORSDOF 0
REMARK  Name = ../refined-set-2016/3bpc/3bpc_pocket.pdb
REMARK  153 active torsions:
REMARK  status: ('A' for Active; 'I' for Inactive)
REMARK    1  A    between atoms: _1  and  _3
REMARK    2  A    between atoms: _3  and  _4
REMARK    3  A    between atoms: _3  and  _6
REMARK    4  A    between atoms: _6  and  _7
REMARK    5  A    between atoms: _12  and  _14
REMARK    6  A    between atoms: _14  and  _15
REMARK    7  A    between atoms: _14  and  _17
REMARK    8  A    between atoms: _17  and  _18
REMARK    9  A    between atoms: _20  and  _22
REMARK   10  A    between atoms: _22  and  _23
REMARK   11  A    between atoms: _22  and  _25
REMARK   12  A    between atoms: _25  and  _26
REMARK   13  A    between atoms: _26  and  _27
REMARK   14  A    between atoms: _27  and  _28
REMARK   15  A    between atoms: _37  and  _39
REMARK   16  A    between atoms: _39  and  _40
REMARK   17  A    between atoms: _39  and  _42
REMARK   18  A    between atoms: _42  and  _43
REMARK   19  A    between atoms: _46  and  _48
REMARK   20  A    between atoms: _48  and  _49
REMARK   21  A    between atoms: _48  and  _51
REMARK   22  A    between atoms: _51  and  _52
REMARK   23  A    between atoms: _52  and  _53
REMARK   24  A    between atoms: _53  and  _54
REMARK   25  A    between atoms: _63  and  _65
REMARK   26  A    between atoms: _65  and  _66
REMARK   27  A    between atoms: _65  and  _68
REMARK   28  A    between atoms: _68  and  _69
REMARK   29  A    between atoms: _69  and  _70
REMARK   30  A    between atoms: _70  and  _71
REMARK   31  A    between atoms: _71  and  _72
REMARK   32  A    between atoms: _76  and  _78
REMARK   33  A    between atoms: _78  and  _79
REMARK   34  A    between atoms: _78  and  _81
REMARK   35  A    between atoms: _81  and  _82
REMARK   36  A    between atoms: _87  and  _88
REMARK   37  A    between atoms: _90  and  _92
REMARK   38  A    between atoms: _92  and  _93
REMARK   39  A    between atoms: _92  and  _95
REMARK   40  A    between atoms: _95  and  _96
REMARK   41  A    between atoms: _106  and  _108
REMARK   42  A    between atoms: _108  and  _109
REMARK   43  A    between atoms: _108  and  _111
REMARK   44  A    between atoms: _111  and  _112
REMARK   45  A    between atoms: _112  and  _113
REMARK   46  A    between atoms: _113  and  _114
REMARK   47  A    between atoms: _114  and  _115
REMARK   48  A    between atoms: _119  and  _121
REMARK   49  A    between atoms: _121  and  _122
REMARK   50  A    between atoms: _121  and  _124
REMARK   51  A    between atoms: _124  and  _125
REMARK   52  A    between atoms: _125  and  _126
REMARK   53  A    between atoms: _131  and  _133
REMARK   54  A    between atoms: _133  and  _134
REMARK   55  A    between atoms: _133  and  _136
REMARK   56  A    between atoms: _136  and  _137
REMARK   57  A    between atoms: _139  and  _141
REMARK   58  A    between atoms: _141  and  _142
REMARK   59  A    between atoms: _141  and  _144
REMARK   60  A    between atoms: _144  and  _145
REMARK   61  A    between atoms: _150  and  _151
REMARK   62  A    between atoms: _153  and  _155
REMARK   63  A    between atoms: _155  and  _156
REMARK   64  A    between atoms: _155  and  _158
REMARK   65  A    between atoms: _158  and  _159
REMARK   66  A    between atoms: _164  and  _166
REMARK   67  A    between atoms: _166  and  _167
REMARK   68  A    between atoms: _166  and  _169
REMARK   69  A    between atoms: _169  and  _170
REMARK   70  A    between atoms: _173  and  _175
REMARK   71  A    between atoms: _175  and  _176
REMARK   72  A    between atoms: _175  and  _178
REMARK   73  A    between atoms: _178  and  _179
REMARK   74  A    between atoms: _179  and  _180
REMARK   75  A    between atoms: _180  and  _181
REMARK   76  A    between atoms: _190  and  _192
REMARK   77  A    between atoms: _192  and  _193
REMARK   78  A    between atoms: _192  and  _195
REMARK   79  A    between atoms: _195  and  _196
REMARK   80  A    between atoms: _201  and  _202
REMARK   81  A    between atoms: _204  and  _206
REMARK   82  A    between atoms: _206  and  _207
REMARK   83  A    between atoms: _206  and  _209
REMARK   84  A    between atoms: _209  and  _210
REMARK   85  A    between atoms: _216  and  _218
REMARK   86  A    between atoms: _218  and  _219
REMARK   87  A    between atoms: _218  and  _221
REMARK   88  A    between atoms: _221  and  _222
REMARK   89  A    between atoms: _225  and  _227
REMARK   90  A    between atoms: _227  and  _228
REMARK   91  A    between atoms: _227  and  _230
REMARK   92  A    between atoms: _230  and  _231
REMARK   93  A    between atoms: _231  and  _232
REMARK   94  A    between atoms: _232  and  _233
REMARK   95  A    between atoms: _242  and  _244
REMARK   96  A    between atoms: _244  and  _245
REMARK   97  A    between atoms: _244  and  _247
REMARK   98  A    between atoms: _247  and  _248
REMARK   99  A    between atoms: _253  and  _255
REMARK  100  A    between atoms: _255  and  _256
REMARK  101  A    between atoms: _259  and  _261
REMARK  102  A    between atoms: _261  and  _262
REMARK  103  A    between atoms: _261  and  _264
REMARK  104  A    between atoms: _264  and  _265
REMARK  105  A    between atoms: _270  and  _272
REMARK  106  A    between atoms: _272  and  _273
REMARK  107  A    between atoms: _272  and  _275
REMARK  108  A    between atoms: _275  and  _276
REMARK  109  A    between atoms: _279  and  _281
REMARK  110  A    between atoms: _281  and  _282
REMARK  111  A    between atoms: _281  and  _284
REMARK  112  A    between atoms: _284  and  _285
REMARK  113  A    between atoms: _285  and  _286
REMARK  114  A    between atoms: _286  and  _288
REMARK  115  A    between atoms: _289  and  _291
REMARK  116  A    between atoms: _291  and  _292
REMARK  117  A    between atoms: _291  and  _294
REMARK  118  A    between atoms: _294  and  _295
REMARK  119  A    between atoms: _298  and  _300
REMARK  120  A    between atoms: _300  and  _301
REMARK  121  A    between atoms: _300  and  _303
REMARK  122  A    between atoms: _303  and  _304
REMARK  123  A    between atoms: _309  and  _311
REMARK  124  A    between atoms: _311  and  _312
REMARK  125  A    between atoms: _311  and  _314
REMARK  126  A    between atoms: _314  and  _315
REMARK  127  A    between atoms: _318  and  _320
REMARK  128  A    between atoms: _320  and  _321
REMARK  129  A    between atoms: _323  and  _325
REMARK  130  A    between atoms: _325  and  _326
REMARK  131  A    between atoms: _325  and  _328
REMARK  132  A    between atoms: _328  and  _329
REMARK  133  A    between atoms: _334  and  _335
REMARK  134  A    between atoms: _337  and  _339
REMARK  135  A    between atoms: _339  and  _340
REMARK  136  A    between atoms: _339  and  _342
REMARK  137  A    between atoms: _342  and  _343
REMARK  138  A    between atoms: _348  and  _349
REMARK  139  A    between atoms: _351  and  _353
REMARK  140  A    between atoms: _353  and  _354
REMARK  141  A    between atoms: _353  and  _356
REMARK  142  A    between atoms: _356  and  _357
REMARK  143  A    between atoms: _357  and  _358
REMARK  144  A    between atoms: _361  and  _363
REMARK  145  A    between atoms: _363  and  _364
REMARK  146  A    between atoms: _363  and  _366
REMARK  147  A    between atoms: _366  and  _367
REMARK  148  A    between atoms: _367  and  _368
REMARK  149  A    between atoms: _368  and  _369
REMARK  150  A    between atoms: _378  and  _380
REMARK  151  A    between atoms: _380  and  _381
REMARK  152  A    between atoms: _380  and  _383
REMARK  153  A    between atoms: _383  and  _384
REMARK                            x       y       z     vdW  Elec       q    Type
REMARK                         _______ _______ _______ _____ _____    ______ ____
ROOT
ATOM      1  O   HOH     1      23.145  -6.598  -6.747  0.00  0.00    +0.000 OA
ENDROOT
TORSDOF 0
REMARK  Name = ../refined-set-2016/3bpc/3bpc_pocket.pdb
REMARK  153 active torsions:
REMARK  status: ('A' for Active; 'I' for Inactive)
REMARK    1  A    between atoms: _1  and  _3
REMARK    2  A    between atoms: _3  and  _4
REMARK    3  A    between atoms: _3  and  _6
REMARK    4  A    between atoms: _6  and  _7
REMARK    5  A    between atoms: _12  and  _14
REMARK    6  A    between atoms: _14  and  _15
REMARK    7  A    between atoms: _14  and  _17
REMARK    8  A    between atoms: _17  and  _18
REMARK    9  A    between atoms: _20  and  _22
REMARK   10  A    between atoms: _22  and  _23
REMARK   11  A    between atoms: _22  and  _25
REMARK   12  A    between atoms: _25  and  _26
REMARK   13  A    between atoms: _26  and  _27
REMARK   14  A    between atoms: _27  and  _28
REMARK   15  A    between atoms: _37  and  _39
REMARK   16  A    between atoms: _39  and  _40
REMARK   17  A    between atoms: _39  and  _42
REMARK   18  A    between atoms: _42  and  _43
REMARK   19  A    between atoms: _46  and  _48
REMARK   20  A    between atoms: _48  and  _49
REMARK   21  A    between atoms: _48  and  _51
REMARK   22  A    between atoms: _51  and  _52
REMARK   23  A    between atoms: _52  and  _53
REMARK   24  A    between atoms: _53  and  _54
REMARK   25  A    between atoms: _63  and  _65
REMARK   26  A    between atoms: _65  and  _66
REMARK   27  A    between atoms: _65  and  _68
REMARK   28  A    between atoms: _68  and  _69
REMARK   29  A    between atoms: _69  and  _70
REMARK   30  A    between atoms: _70  and  _71
REMARK   31  A    between atoms: _71  and  _72
REMARK   32  A    between atoms: _76  and  _78
REMARK   33  A    between atoms: _78  and  _79
REMARK   34  A    between atoms: _78  and  _81
REMARK   35  A    between atoms: _81  and  _82
REMARK   36  A    between atoms: _87  and  _88
REMARK   37  A    between atoms: _90  and  _92
REMARK   38  A    between atoms: _92  and  _93
REMARK   39  A    between atoms: _92  and  _95
REMARK   40  A    between atoms: _95  and  _96
REMARK   41  A    between atoms: _106  and  _108
REMARK   42  A    between atoms: _108  and  _109
REMARK   43  A    between atoms: _108  and  _111
REMARK   44  A    between atoms: _111  and  _112
REMARK   45  A    between atoms: _112  and  _113
REMARK   46  A    between atoms: _113  and  _114
REMARK   47  A    between atoms: _114  and  _115
REMARK   48  A    between atoms: _119  and  _121
REMARK   49  A    between atoms: _121  and  _122
REMARK   50  A    between atoms: _121  and  _124
REMARK   51  A    between atoms: _124  and  _125
REMARK   52  A    between atoms: _125  and  _126
REMARK   53  A    between atoms: _131  and  _133
REMARK   54  A    between atoms: _133  and  _134
REMARK   55  A    between atoms: _133  and  _136
REMARK   56  A    between atoms: _136  and  _137
REMARK   57  A    between atoms: _139  and  _141
REMARK   58  A    between atoms: _141  and  _142
REMARK   59  A    between atoms: _141  and  _144
REMARK   60  A    between atoms: _144  and  _145
REMARK   61  A    between atoms: _150  and  _151
REMARK   62  A    between atoms: _153  and  _155
REMARK   63  A    between atoms: _155  and  _156
REMARK   64  A    between atoms: _155  and  _158
REMARK   65  A    between atoms: _158  and  _159
REMARK   66  A    between atoms: _164  and  _166
REMARK   67  A    between atoms: _166  and  _167
REMARK   68  A    between atoms: _166  and  _169
REMARK   69  A    between atoms: _169  and  _170
REMARK   70  A    between atoms: _173  and  _175
REMARK   71  A    between atoms: _175  and  _176
REMARK   72  A    between atoms: _175  and  _178
REMARK   73  A    between atoms: _178  and  _179
REMARK   74  A    between atoms: _179  and  _180
REMARK   75  A    between atoms: _180  and  _181
REMARK   76  A    between atoms: _190  and  _192
REMARK   77  A    between atoms: _192  and  _193
REMARK   78  A    between atoms: _192  and  _195
REMARK   79  A    between atoms: _195  and  _196
REMARK   80  A    between atoms: _201  and  _202
REMARK   81  A    between atoms: _204  and  _206
REMARK   82  A    between atoms: _206  and  _207
REMARK   83  A    between atoms: _206  and  _209
REMARK   84  A    between atoms: _209  and  _210
REMARK   85  A    between atoms: _216  and  _218
REMARK   86  A    between atoms: _218  and  _219
REMARK   87  A    between atoms: _218  and  _221
REMARK   88  A    between atoms: _221  and  _222
REMARK   89  A    between atoms: _225  and  _227
REMARK   90  A    between atoms: _227  and  _228
REMARK   91  A    between atoms: _227  and  _230
REMARK   92  A    between atoms: _230  and  _231
REMARK   93  A    between atoms: _231  and  _232
REMARK   94  A    between atoms: _232  and  _233
REMARK   95  A    between atoms: _242  and  _244
REMARK   96  A    between atoms: _244  and  _245
REMARK   97  A    between atoms: _244  and  _247
REMARK   98  A    between atoms: _247  and  _248
REMARK   99  A    between atoms: _253  and  _255
REMARK  100  A    between atoms: _255  and  _256
REMARK  101  A    between atoms: _259  and  _261
REMARK  102  A    between atoms: _261  and  _262
REMARK  103  A    between atoms: _261  and  _264
REMARK  104  A    between atoms: _264  and  _265
REMARK  105  A    between atoms: _270  and  _272
REMARK  106  A    between atoms: _272  and  _273
REMARK  107  A    between atoms: _272  and  _275
REMARK  108  A    between atoms: _275  and  _276
REMARK  109  A    between atoms: _279  and  _281
REMARK  110  A    between atoms: _281  and  _282
REMARK  111  A    between atoms: _281  and  _284
REMARK  112  A    between atoms: _284  and  _285
REMARK  113  A    between atoms: _285  and  _286
REMARK  114  A    between atoms: _286  and  _288
REMARK  115  A    between atoms: _289  and  _291
REMARK  116  A    between atoms: _291  and  _292
REMARK  117  A    between atoms: _291  and  _294
REMARK  118  A    between atoms: _294  and  _295
REMARK  119  A    between atoms: _298  and  _300
REMARK  120  A    between atoms: _300  and  _301
REMARK  121  A    between atoms: _300  and  _303
REMARK  122  A    between atoms: _303  and  _304
REMARK  123  A    between atoms: _309  and  _311
REMARK  124  A    between atoms: _311  and  _312
REMARK  125  A    between atoms: _311  and  _314
REMARK  126  A    between atoms: _314  and  _315
REMARK  127  A    between atoms: _318  and  _320
REMARK  128  A    between atoms: _320  and  _321
REMARK  129  A    between atoms: _323  and  _325
REMARK  130  A    between atoms: _325  and  _326
REMARK  131  A    between atoms: _325  and  _328
REMARK  132  A    between atoms: _328  and  _329
REMARK  133  A    between atoms: _334  and  _335
REMARK  134  A    between atoms: _337  and  _339
REMARK  135  A    between atoms: _339  and  _340
REMARK  136  A    between atoms: _339  and  _342
REMARK  137  A    between atoms: _342  and  _343
REMARK  138  A    between atoms: _348  and  _349
REMARK  139  A    between atoms: _351  and  _353
REMARK  140  A    between atoms: _353  and  _354
REMARK  141  A    between atoms: _353  and  _356
REMARK  142  A    between atoms: _356  and  _357
REMARK  143  A    between atoms: _357  and  _358
REMARK  144  A    between atoms: _361  and  _363
REMARK  145  A    between atoms: _363  and  _364
REMARK  146  A    between atoms: _363  and  _366
REMARK  147  A    between atoms: _366  and  _367
REMARK  148  A    between atoms: _367  and  _368
REMARK  149  A    between atoms: _368  and  _369
REMARK  150  A    between atoms: _378  and  _380
REMARK  151  A    between atoms: _380  and  _381
REMARK  152  A    between atoms: _380  and  _383
REMARK  153  A    between atoms: _383  and  _384
REMARK                            x       y       z     vdW  Elec       q    Type
REMARK                         _______ _______ _______ _____ _____    ______ ____
ROOT
ATOM      1  O   HOH     1      20.865  -4.775   1.349  0.00  0.00    +0.000 OA
ENDROOT
TORSDOF 0
REMARK  Name = ../refined-set-2016/3bpc/3bpc_pocket.pdb
REMARK  153 active torsions:
REMARK  status: ('A' for Active; 'I' for Inactive)
REMARK    1  A    between atoms: _1  and  _3
REMARK    2  A    between atoms: _3  and  _4
REMARK    3  A    between atoms: _3  and  _6
REMARK    4  A    between atoms: _6  and  _7
REMARK    5  A    between atoms: _12  and  _14
REMARK    6  A    between atoms: _14  and  _15
REMARK    7  A    between atoms: _14  and  _17
REMARK    8  A    between atoms: _17  and  _18
REMARK    9  A    between atoms: _20  and  _22
REMARK   10  A    between atoms: _22  and  _23
REMARK   11  A    between atoms: _22  and  _25
REMARK   12  A    between atoms: _25  and  _26
REMARK   13  A    between atoms: _26  and  _27
REMARK   14  A    between atoms: _27  and  _28
REMARK   15  A    between atoms: _37  and  _39
REMARK   16  A    between atoms: _39  and  _40
REMARK   17  A    between atoms: _39  and  _42
REMARK   18  A    between atoms: _42  and  _43
REMARK   19  A    between atoms: _46  and  _48
REMARK   20  A    between atoms: _48  and  _49
REMARK   21  A    between atoms: _48  and  _51
REMARK   22  A    between atoms: _51  and  _52
REMARK   23  A    between atoms: _52  and  _53
REMARK   24  A    between atoms: _53  and  _54
REMARK   25  A    between atoms: _63  and  _65
REMARK   26  A    between atoms: _65  and  _66
REMARK   27  A    between atoms: _65  and  _68
REMARK   28  A    between atoms: _68  and  _69
REMARK   29  A    between atoms: _69  and  _70
REMARK   30  A    between atoms: _70  and  _71
REMARK   31  A    between atoms: _71  and  _72
REMARK   32  A    between atoms: _76  and  _78
REMARK   33  A    between atoms: _78  and  _79
REMARK   34  A    between atoms: _78  and  _81
REMARK   35  A    between atoms: _81  and  _82
REMARK   36  A    between atoms: _87  and  _88
REMARK   37  A    between atoms: _90  and  _92
REMARK   38  A    between atoms: _92  and  _93
REMARK   39  A    between atoms: _92  and  _95
REMARK   40  A    between atoms: _95  and  _96
REMARK   41  A    between atoms: _106  and  _108
REMARK   42  A    between atoms: _108  and  _109
REMARK   43  A    between atoms: _108  and  _111
REMARK   44  A    between atoms: _111  and  _112
REMARK   45  A    between atoms: _112  and  _113
REMARK   46  A    between atoms: _113  and  _114
REMARK   47  A    between atoms: _114  and  _115
REMARK   48  A    between atoms: _119  and  _121
REMARK   49  A    between atoms: _121  and  _122
REMARK   50  A    between atoms: _121  and  _124
REMARK   51  A    between atoms: _124  and  _125
REMARK   52  A    between atoms: _125  and  _126
REMARK   53  A    between atoms: _131  and  _133
REMARK   54  A    between atoms: _133  and  _134
REMARK   55  A    between atoms: _133  and  _136
REMARK   56  A    between atoms: _136  and  _137
REMARK   57  A    between atoms: _139  and  _141
REMARK   58  A    between atoms: _141  and  _142
REMARK   59  A    between atoms: _141  and  _144
REMARK   60  A    between atoms: _144  and  _145
REMARK   61  A    between atoms: _150  and  _151
REMARK   62  A    between atoms: _153  and  _155
REMARK   63  A    between atoms: _155  and  _156
REMARK   64  A    between atoms: _155  and  _158
REMARK   65  A    between atoms: _158  and  _159
REMARK   66  A    between atoms: _164  and  _166
REMARK   67  A    between atoms: _166  and  _167
REMARK   68  A    between atoms: _166  and  _169
REMARK   69  A    between atoms: _169  and  _170
REMARK   70  A    between atoms: _173  and  _175
REMARK   71  A    between atoms: _175  and  _176
REMARK   72  A    between atoms: _175  and  _178
REMARK   73  A    between atoms: _178  and  _179
REMARK   74  A    between atoms: _179  and  _180
REMARK   75  A    between atoms: _180  and  _181
REMARK   76  A    between atoms: _190  and  _192
REMARK   77  A    between atoms: _192  and  _193
REMARK   78  A    between atoms: _192  and  _195
REMARK   79  A    between atoms: _195  and  _196
REMARK   80  A    between atoms: _201  and  _202
REMARK   81  A    between atoms: _204  and  _206
REMARK   82  A    between atoms: _206  and  _207
REMARK   83  A    between atoms: _206  and  _209
REMARK   84  A    between atoms: _209  and  _210
REMARK   85  A    between atoms: _216  and  _218
REMARK   86  A    between atoms: _218  and  _219
REMARK   87  A    between atoms: _218  and  _221
REMARK   88  A    between atoms: _221  and  _222
REMARK   89  A    between atoms: _225  and  _227
REMARK   90  A    between atoms: _227  and  _228
REMARK   91  A    between atoms: _227  and  _230
REMARK   92  A    between atoms: _230  and  _231
REMARK   93  A    between atoms: _231  and  _232
REMARK   94  A    between atoms: _232  and  _233
REMARK   95  A    between atoms: _242  and  _244
REMARK   96  A    between atoms: _244  and  _245
REMARK   97  A    between atoms: _244  and  _247
REMARK   98  A    between atoms: _247  and  _248
REMARK   99  A    between atoms: _253  and  _255
REMARK  100  A    between atoms: _255  and  _256
REMARK  101  A    between atoms: _259  and  _261
REMARK  102  A    between atoms: _261  and  _262
REMARK  103  A    between atoms: _261  and  _264
REMARK  104  A    between atoms: _264  and  _265
REMARK  105  A    between atoms: _270  and  _272
REMARK  106  A    between atoms: _272  and  _273
REMARK  107  A    between atoms: _272  and  _275
REMARK  108  A    between atoms: _275  and  _276
REMARK  109  A    between atoms: _279  and  _281
REMARK  110  A    between atoms: _281  and  _282
REMARK  111  A    between atoms: _281  and  _284
REMARK  112  A    between atoms: _284  and  _285
REMARK  113  A    between atoms: _285  and  _286
REMARK  114  A    between atoms: _286  and  _288
REMARK  115  A    between atoms: _289  and  _291
REMARK  116  A    between atoms: _291  and  _292
REMARK  117  A    between atoms: _291  and  _294
REMARK  118  A    between atoms: _294  and  _295
REMARK  119  A    between atoms: _298  and  _300
REMARK  120  A    between atoms: _300  and  _301
REMARK  121  A    between atoms: _300  and  _303
REMARK  122  A    between atoms: _303  and  _304
REMARK  123  A    between atoms: _309  and  _311
REMARK  124  A    between atoms: _311  and  _312
REMARK  125  A    between atoms: _311  and  _314
REMARK  126  A    between atoms: _314  and  _315
REMARK  127  A    between atoms: _318  and  _320
REMARK  128  A    between atoms: _320  and  _321
REMARK  129  A    between atoms: _323  and  _325
REMARK  130  A    between atoms: _325  and  _326
REMARK  131  A    between atoms: _325  and  _328
REMARK  132  A    between atoms: _328  and  _329
REMARK  133  A    between atoms: _334  and  _335
REMARK  134  A    between atoms: _337  and  _339
REMARK  135  A    between atoms: _339  and  _340
REMARK  136  A    between atoms: _339  and  _342
REMARK  137  A    between atoms: _342  and  _343
REMARK  138  A    between atoms: _348  and  _349
REMARK  139  A    between atoms: _351  and  _353
REMARK  140  A    between atoms: _353  and  _354
REMARK  141  A    between atoms: _353  and  _356
REMARK  142  A    between atoms: _356  and  _357
REMARK  143  A    between atoms: _357  and  _358
REMARK  144  A    between atoms: _361  and  _363
REMARK  145  A    between atoms: _363  and  _364
REMARK  146  A    between atoms: _363  and  _366
REMARK  147  A    between atoms: _366  and  _367
REMARK  148  A    between atoms: _367  and  _368
REMARK  149  A    between atoms: _368  and  _369
REMARK  150  A    between atoms: _378  and  _380
REMARK  151  A    between atoms: _380  and  _381
REMARK  152  A    between atoms: _380  and  _383
REMARK  153  A    between atoms: _383  and  _384
REMARK                            x       y       z     vdW  Elec       q    Type
REMARK                         _______ _______ _______ _____ _____    ______ ____
ROOT
ATOM      1  O   HOH     1      33.997  -2.126   4.698  0.00  0.00    +0.000 OA
ENDROOT
TORSDOF 0
REMARK  Name = ../refined-set-2016/3bpc/3bpc_pocket.pdb
REMARK  153 active torsions:
REMARK  status: ('A' for Active; 'I' for Inactive)
REMARK    1  A    between atoms: _1  and  _3
REMARK    2  A    between atoms: _3  and  _4
REMARK    3  A    between atoms: _3  and  _6
REMARK    4  A    between atoms: _6  and  _7
REMARK    5  A    between atoms: _12  and  _14
REMARK    6  A    between atoms: _14  and  _15
REMARK    7  A    between atoms: _14  and  _17
REMARK    8  A    between atoms: _17  and  _18
REMARK    9  A    between atoms: _20  and  _22
REMARK   10  A    between atoms: _22  and  _23
REMARK   11  A    between atoms: _22  and  _25
REMARK   12  A    between atoms: _25  and  _26
REMARK   13  A    between atoms: _26  and  _27
REMARK   14  A    between atoms: _27  and  _28
REMARK   15  A    between atoms: _37  and  _39
REMARK   16  A    between atoms: _39  and  _40
REMARK   17  A    between atoms: _39  and  _42
REMARK   18  A    between atoms: _42  and  _43
REMARK   19  A    between atoms: _46  and  _48
REMARK   20  A    between atoms: _48  and  _49
REMARK   21  A    between atoms: _48  and  _51
REMARK   22  A    between atoms: _51  and  _52
REMARK   23  A    between atoms: _52  and  _53
REMARK   24  A    between atoms: _53  and  _54
REMARK   25  A    between atoms: _63  and  _65
REMARK   26  A    between atoms: _65  and  _66
REMARK   27  A    between atoms: _65  and  _68
REMARK   28  A    between atoms: _68  and  _69
REMARK   29  A    between atoms: _69  and  _70
REMARK   30  A    between atoms: _70  and  _71
REMARK   31  A    between atoms: _71  and  _72
REMARK   32  A    between atoms: _76  and  _78
REMARK   33  A    between atoms: _78  and  _79
REMARK   34  A    between atoms: _78  and  _81
REMARK   35  A    between atoms: _81  and  _82
REMARK   36  A    between atoms: _87  and  _88
REMARK   37  A    between atoms: _90  and  _92
REMARK   38  A    between atoms: _92  and  _93
REMARK   39  A    between atoms: _92  and  _95
REMARK   40  A    between atoms: _95  and  _96
REMARK   41  A    between atoms: _106  and  _108
REMARK   42  A    between atoms: _108  and  _109
REMARK   43  A    between atoms: _108  and  _111
REMARK   44  A    between atoms: _111  and  _112
REMARK   45  A    between atoms: _112  and  _113
REMARK   46  A    between atoms: _113  and  _114
REMARK   47  A    between atoms: _114  and  _115
REMARK   48  A    between atoms: _119  and  _121
REMARK   49  A    between atoms: _121  and  _122
REMARK   50  A    between atoms: _121  and  _124
REMARK   51  A    between atoms: _124  and  _125
REMARK   52  A    between atoms: _125  and  _126
REMARK   53  A    between atoms: _131  and  _133
REMARK   54  A    between atoms: _133  and  _134
REMARK   55  A    between atoms: _133  and  _136
REMARK   56  A    between atoms: _136  and  _137
REMARK   57  A    between atoms: _139  and  _141
REMARK   58  A    between atoms: _141  and  _142
REMARK   59  A    between atoms: _141  and  _144
REMARK   60  A    between atoms: _144  and  _145
REMARK   61  A    between atoms: _150  and  _151
REMARK   62  A    between atoms: _153  and  _155
REMARK   63  A    between atoms: _155  and  _156
REMARK   64  A    between atoms: _155  and  _158
REMARK   65  A    between atoms: _158  and  _159
REMARK   66  A    between atoms: _164  and  _166
REMARK   67  A    between atoms: _166  and  _167
REMARK   68  A    between atoms: _166  and  _169
REMARK   69  A    between atoms: _169  and  _170
REMARK   70  A    between atoms: _173  and  _175
REMARK   71  A    between atoms: _175  and  _176
REMARK   72  A    between atoms: _175  and  _178
REMARK   73  A    between atoms: _178  and  _179
REMARK   74  A    between atoms: _179  and  _180
REMARK   75  A    between atoms: _180  and  _181
REMARK   76  A    between atoms: _190  and  _192
REMARK   77  A    between atoms: _192  and  _193
REMARK   78  A    between atoms: _192  and  _195
REMARK   79  A    between atoms: _195  and  _196
REMARK   80  A    between atoms: _201  and  _202
REMARK   81  A    between atoms: _204  and  _206
REMARK   82  A    between atoms: _206  and  _207
REMARK   83  A    between atoms: _206  and  _209
REMARK   84  A    between atoms: _209  and  _210
REMARK   85  A    between atoms: _216  and  _218
REMARK   86  A    between atoms: _218  and  _219
REMARK   87  A    between atoms: _218  and  _221
REMARK   88  A    between atoms: _221  and  _222
REMARK   89  A    between atoms: _225  and  _227
REMARK   90  A    between atoms: _227  and  _228
REMARK   91  A    between atoms: _227  and  _230
REMARK   92  A    between atoms: _230  and  _231
REMARK   93  A    between atoms: _231  and  _232
REMARK   94  A    between atoms: _232  and  _233
REMARK   95  A    between atoms: _242  and  _244
REMARK   96  A    between atoms: _244  and  _245
REMARK   97  A    between atoms: _244  and  _247
REMARK   98  A    between atoms: _247  and  _248
REMARK   99  A    between atoms: _253  and  _255
REMARK  100  A    between atoms: _255  and  _256
REMARK  101  A    between atoms: _259  and  _261
REMARK  102  A    between atoms: _261  and  _262
REMARK  103  A    between atoms: _261  and  _264
REMARK  104  A    between atoms: _264  and  _265
REMARK  105  A    between atoms: _270  and  _272
REMARK  106  A    between atoms: _272  and  _273
REMARK  107  A    between atoms: _272  and  _275
REMARK  108  A    between atoms: _275  and  _276
REMARK  109  A    between atoms: _279  and  _281
REMARK  110  A    between atoms: _281  and  _282
REMARK  111  A    between atoms: _281  and  _284
REMARK  112  A    between atoms: _284  and  _285
REMARK  113  A    between atoms: _285  and  _286
REMARK  114  A    between atoms: _286  and  _288
REMARK  115  A    between atoms: _289  and  _291
REMARK  116  A    between atoms: _291  and  _292
REMARK  117  A    between atoms: _291  and  _294
REMARK  118  A    between atoms: _294  and  _295
REMARK  119  A    between atoms: _298  and  _300
REMARK  120  A    between atoms: _300  and  _301
REMARK  121  A    between atoms: _300  and  _303
REMARK  122  A    between atoms: _303  and  _304
REMARK  123  A    between atoms: _309  and  _311
REMARK  124  A    between atoms: _311  and  _312
REMARK  125  A    between atoms: _311  and  _314
REMARK  126  A    between atoms: _314  and  _315
REMARK  127  A    between atoms: _318  and  _320
REMARK  128  A    between atoms: _320  and  _321
REMARK  129  A    between atoms: _323  and  _325
REMARK  130  A    between atoms: _325  and  _326
REMARK  131  A    between atoms: _325  and  _328
REMARK  132  A    between atoms: _328  and  _329
REMARK  133  A    between atoms: _334  and  _335
REMARK  134  A    between atoms: _337  and  _339
REMARK  135  A    between atoms: _339  and  _340
REMARK  136  A    between atoms: _339  and  _342
REMARK  137  A    between atoms: _342  and  _343
REMARK  138  A    between atoms: _348  and  _349
REMARK  139  A    between atoms: _351  and  _353
REMARK  140  A    between atoms: _353  and  _354
REMARK  141  A    between atoms: _353  and  _356
REMARK  142  A    between atoms: _356  and  _357
REMARK  143  A    between atoms: _357  and  _358
REMARK  144  A    between atoms: _361  and  _363
REMARK  145  A    between atoms: _363  and  _364
REMARK  146  A    between atoms: _363  and  _366
REMARK  147  A    between atoms: _366  and  _367
REMARK  148  A    between atoms: _367  and  _368
REMARK  149  A    between atoms: _368  and  _369
REMARK  150  A    between atoms: _378  and  _380
REMARK  151  A    between atoms: _380  and  _381
REMARK  152  A    between atoms: _380  and  _383
REMARK  153  A    between atoms: _383  and  _384
REMARK                            x       y       z     vdW  Elec       q    Type
REMARK                         _______ _______ _______ _____ _____    ______ ____
ROOT
ATOM      1  O   HOH     1      29.485  -6.571   9.051  0.00  0.00    +0.000 OA
ENDROOT
TORSDOF 0
REMARK  Name = ../refined-set-2016/3bpc/3bpc_pocket.pdb
REMARK  153 active torsions:
REMARK  status: ('A' for Active; 'I' for Inactive)
REMARK    1  A    between atoms: _1  and  _3
REMARK    2  A    between atoms: _3  and  _4
REMARK    3  A    between atoms: _3  and  _6
REMARK    4  A    between atoms: _6  and  _7
REMARK    5  A    between atoms: _12  and  _14
REMARK    6  A    between atoms: _14  and  _15
REMARK    7  A    between atoms: _14  and  _17
REMARK    8  A    between atoms: _17  and  _18
REMARK    9  A    between atoms: _20  and  _22
REMARK   10  A    between atoms: _22  and  _23
REMARK   11  A    between atoms: _22  and  _25
REMARK   12  A    between atoms: _25  and  _26
REMARK   13  A    between atoms: _26  and  _27
REMARK   14  A    between atoms: _27  and  _28
REMARK   15  A    between atoms: _37  and  _39
REMARK   16  A    between atoms: _39  and  _40
REMARK   17  A    between atoms: _39  and  _42
REMARK   18  A    between atoms: _42  and  _43
REMARK   19  A    between atoms: _46  and  _48
REMARK   20  A    between atoms: _48  and  _49
REMARK   21  A    between atoms: _48  and  _51
REMARK   22  A    between atoms: _51  and  _52
REMARK   23  A    between atoms: _52  and  _53
REMARK   24  A    between atoms: _53  and  _54
REMARK   25  A    between atoms: _63  and  _65
REMARK   26  A    between atoms: _65  and  _66
REMARK   27  A    between atoms: _65  and  _68
REMARK   28  A    between atoms: _68  and  _69
REMARK   29  A    between atoms: _69  and  _70
REMARK   30  A    between atoms: _70  and  _71
REMARK   31  A    between atoms: _71  and  _72
REMARK   32  A    between atoms: _76  and  _78
REMARK   33  A    between atoms: _78  and  _79
REMARK   34  A    between atoms: _78  and  _81
REMARK   35  A    between atoms: _81  and  _82
REMARK   36  A    between atoms: _87  and  _88
REMARK   37  A    between atoms: _90  and  _92
REMARK   38  A    between atoms: _92  and  _93
REMARK   39  A    between atoms: _92  and  _95
REMARK   40  A    between atoms: _95  and  _96
REMARK   41  A    between atoms: _106  and  _108
REMARK   42  A    between atoms: _108  and  _109
REMARK   43  A    between atoms: _108  and  _111
REMARK   44  A    between atoms: _111  and  _112
REMARK   45  A    between atoms: _112  and  _113
REMARK   46  A    between atoms: _113  and  _114
REMARK   47  A    between atoms: _114  and  _115
REMARK   48  A    between atoms: _119  and  _121
REMARK   49  A    between atoms: _121  and  _122
REMARK   50  A    between atoms: _121  and  _124
REMARK   51  A    between atoms: _124  and  _125
REMARK   52  A    between atoms: _125  and  _126
REMARK   53  A    between atoms: _131  and  _133
REMARK   54  A    between atoms: _133  and  _134
REMARK   55  A    between atoms: _133  and  _136
REMARK   56  A    between atoms: _136  and  _137
REMARK   57  A    between atoms: _139  and  _141
REMARK   58  A    between atoms: _141  and  _142
REMARK   59  A    between atoms: _141  and  _144
REMARK   60  A    between atoms: _144  and  _145
REMARK   61  A    between atoms: _150  and  _151
REMARK   62  A    between atoms: _153  and  _155
REMARK   63  A    between atoms: _155  and  _156
REMARK   64  A    between atoms: _155  and  _158
REMARK   65  A    between atoms: _158  and  _159
REMARK   66  A    between atoms: _164  and  _166
REMARK   67  A    between atoms: _166  and  _167
REMARK   68  A    between atoms: _166  and  _169
REMARK   69  A    between atoms: _169  and  _170
REMARK   70  A    between atoms: _173  and  _175
REMARK   71  A    between atoms: _175  and  _176
REMARK   72  A    between atoms: _175  and  _178
REMARK   73  A    between atoms: _178  and  _179
REMARK   74  A    between atoms: _179  and  _180
REMARK   75  A    between atoms: _180  and  _181
REMARK   76  A    between atoms: _190  and  _192
REMARK   77  A    between atoms: _192  and  _193
REMARK   78  A    between atoms: _192  and  _195
REMARK   79  A    between atoms: _195  and  _196
REMARK   80  A    between atoms: _201  and  _202
REMARK   81  A    between atoms: _204  and  _206
REMARK   82  A    between atoms: _206  and  _207
REMARK   83  A    between atoms: _206  and  _209
REMARK   84  A    between atoms: _209  and  _210
REMARK   85  A    between atoms: _216  and  _218
REMARK   86  A    between atoms: _218  and  _219
REMARK   87  A    between atoms: _218  and  _221
REMARK   88  A    between atoms: _221  and  _222
REMARK   89  A    between atoms: _225  and  _227
REMARK   90  A    between atoms: _227  and  _228
REMARK   91  A    between atoms: _227  and  _230
REMARK   92  A    between atoms: _230  and  _231
REMARK   93  A    between atoms: _231  and  _232
REMARK   94  A    between atoms: _232  and  _233
REMARK   95  A    between atoms: _242  and  _244
REMARK   96  A    between atoms: _244  and  _245
REMARK   97  A    between atoms: _244  and  _247
REMARK   98  A    between atoms: _247  and  _248
REMARK   99  A    between atoms: _253  and  _255
REMARK  100  A    between atoms: _255  and  _256
REMARK  101  A    between atoms: _259  and  _261
REMARK  102  A    between atoms: _261  and  _262
REMARK  103  A    between atoms: _261  and  _264
REMARK  104  A    between atoms: _264  and  _265
REMARK  105  A    between atoms: _270  and  _272
REMARK  106  A    between atoms: _272  and  _273
REMARK  107  A    between atoms: _272  and  _275
REMARK  108  A    between atoms: _275  and  _276
REMARK  109  A    between atoms: _279  and  _281
REMARK  110  A    between atoms: _281  and  _282
REMARK  111  A    between atoms: _281  and  _284
REMARK  112  A    between atoms: _284  and  _285
REMARK  113  A    between atoms: _285  and  _286
REMARK  114  A    between atoms: _286  and  _288
REMARK  115  A    between atoms: _289  and  _291
REMARK  116  A    between atoms: _291  and  _292
REMARK  117  A    between atoms: _291  and  _294
REMARK  118  A    between atoms: _294  and  _295
REMARK  119  A    between atoms: _298  and  _300
REMARK  120  A    between atoms: _300  and  _301
REMARK  121  A    between atoms: _300  and  _303
REMARK  122  A    between atoms: _303  and  _304
REMARK  123  A    between atoms: _309  and  _311
REMARK  124  A    between atoms: _311  and  _312
REMARK  125  A    between atoms: _311  and  _314
REMARK  126  A    between atoms: _314  and  _315
REMARK  127  A    between atoms: _318  and  _320
REMARK  128  A    between atoms: _320  and  _321
REMARK  129  A    between atoms: _323  and  _325
REMARK  130  A    between atoms: _325  and  _326
REMARK  131  A    between atoms: _325  and  _328
REMARK  132  A    between atoms: _328  and  _329
REMARK  133  A    between atoms: _334  and  _335
REMARK  134  A    between atoms: _337  and  _339
REMARK  135  A    between atoms: _339  and  _340
REMARK  136  A    between atoms: _339  and  _342
REMARK  137  A    between atoms: _342  and  _343
REMARK  138  A    between atoms: _348  and  _349
REMARK  139  A    between atoms: _351  and  _353
REMARK  140  A    between atoms: _353  and  _354
REMARK  141  A    between atoms: _353  and  _356
REMARK  142  A    between atoms: _356  and  _357
REMARK  143  A    between atoms: _357  and  _358
REMARK  144  A    between atoms: _361  and  _363
REMARK  145  A    between atoms: _363  and  _364
REMARK  146  A    between atoms: _363  and  _366
REMARK  147  A    between atoms: _366  and  _367
REMARK  148  A    between atoms: _367  and  _368
REMARK  149  A    between atoms: _368  and  _369
REMARK  150  A    between atoms: _378  and  _380
REMARK  151  A    between atoms: _380  and  _381
REMARK  152  A    between atoms: _380  and  _383
REMARK  153  A    between atoms: _383  and  _384
REMARK                            x       y       z     vdW  Elec       q    Type
REMARK                         _______ _______ _______ _____ _____    ______ ____
ROOT
ATOM      1  O   HOH     1      31.601  -7.194   6.619  0.00  0.00    +0.000 OA
ENDROOT
TORSDOF 0
REMARK  Name = ../refined-set-2016/3bpc/3bpc_pocket.pdb
REMARK  153 active torsions:
REMARK  status: ('A' for Active; 'I' for Inactive)
REMARK    1  A    between atoms: _1  and  _3
REMARK    2  A    between atoms: _3  and  _4
REMARK    3  A    between atoms: _3  and  _6
REMARK    4  A    between atoms: _6  and  _7
REMARK    5  A    between atoms: _12  and  _14
REMARK    6  A    between atoms: _14  and  _15
REMARK    7  A    between atoms: _14  and  _17
REMARK    8  A    between atoms: _17  and  _18
REMARK    9  A    between atoms: _20  and  _22
REMARK   10  A    between atoms: _22  and  _23
REMARK   11  A    between atoms: _22  and  _25
REMARK   12  A    between atoms: _25  and  _26
REMARK   13  A    between atoms: _26  and  _27
REMARK   14  A    between atoms: _27  and  _28
REMARK   15  A    between atoms: _37  and  _39
REMARK   16  A    between atoms: _39  and  _40
REMARK   17  A    between atoms: _39  and  _42
REMARK   18  A    between atoms: _42  and  _43
REMARK   19  A    between atoms: _46  and  _48
REMARK   20  A    between atoms: _48  and  _49
REMARK   21  A    between atoms: _48  and  _51
REMARK   22  A    between atoms: _51  and  _52
REMARK   23  A    between atoms: _52  and  _53
REMARK   24  A    between atoms: _53  and  _54
REMARK   25  A    between atoms: _63  and  _65
REMARK   26  A    between atoms: _65  and  _66
REMARK   27  A    between atoms: _65  and  _68
REMARK   28  A    between atoms: _68  and  _69
REMARK   29  A    between atoms: _69  and  _70
REMARK   30  A    between atoms: _70  and  _71
REMARK   31  A    between atoms: _71  and  _72
REMARK   32  A    between atoms: _76  and  _78
REMARK   33  A    between atoms: _78  and  _79
REMARK   34  A    between atoms: _78  and  _81
REMARK   35  A    between atoms: _81  and  _82
REMARK   36  A    between atoms: _87  and  _88
REMARK   37  A    between atoms: _90  and  _92
REMARK   38  A    between atoms: _92  and  _93
REMARK   39  A    between atoms: _92  and  _95
REMARK   40  A    between atoms: _95  and  _96
REMARK   41  A    between atoms: _106  and  _108
REMARK   42  A    between atoms: _108  and  _109
REMARK   43  A    between atoms: _108  and  _111
REMARK   44  A    between atoms: _111  and  _112
REMARK   45  A    between atoms: _112  and  _113
REMARK   46  A    between atoms: _113  and  _114
REMARK   47  A    between atoms: _114  and  _115
REMARK   48  A    between atoms: _119  and  _121
REMARK   49  A    between atoms: _121  and  _122
REMARK   50  A    between atoms: _121  and  _124
REMARK   51  A    between atoms: _124  and  _125
REMARK   52  A    between atoms: _125  and  _126
REMARK   53  A    between atoms: _131  and  _133
REMARK   54  A    between atoms: _133  and  _134
REMARK   55  A    between atoms: _133  and  _136
REMARK   56  A    between atoms: _136  and  _137
REMARK   57  A    between atoms: _139  and  _141
REMARK   58  A    between atoms: _141  and  _142
REMARK   59  A    between atoms: _141  and  _144
REMARK   60  A    between atoms: _144  and  _145
REMARK   61  A    between atoms: _150  and  _151
REMARK   62  A    between atoms: _153  and  _155
REMARK   63  A    between atoms: _155  and  _156
REMARK   64  A    between atoms: _155  and  _158
REMARK   65  A    between atoms: _158  and  _159
REMARK   66  A    between atoms: _164  and  _166
REMARK   67  A    between atoms: _166  and  _167
REMARK   68  A    between atoms: _166  and  _169
REMARK   69  A    between atoms: _169  and  _170
REMARK   70  A    between atoms: _173  and  _175
REMARK   71  A    between atoms: _175  and  _176
REMARK   72  A    between atoms: _175  and  _178
REMARK   73  A    between atoms: _178  and  _179
REMARK   74  A    between atoms: _179  and  _180
REMARK   75  A    between atoms: _180  and  _181
REMARK   76  A    between atoms: _190  and  _192
REMARK   77  A    between atoms: _192  and  _193
REMARK   78  A    between atoms: _192  and  _195
REMARK   79  A    between atoms: _195  and  _196
REMARK   80  A    between atoms: _201  and  _202
REMARK   81  A    between atoms: _204  and  _206
REMARK   82  A    between atoms: _206  and  _207
REMARK   83  A    between atoms: _206  and  _209
REMARK   84  A    between atoms: _209  and  _210
REMARK   85  A    between atoms: _216  and  _218
REMARK   86  A    between atoms: _218  and  _219
REMARK   87  A    between atoms: _218  and  _221
REMARK   88  A    between atoms: _221  and  _222
REMARK   89  A    between atoms: _225  and  _227
REMARK   90  A    between atoms: _227  and  _228
REMARK   91  A    between atoms: _227  and  _230
REMARK   92  A    between atoms: _230  and  _231
REMARK   93  A    between atoms: _231  and  _232
REMARK   94  A    between atoms: _232  and  _233
REMARK   95  A    between atoms: _242  and  _244
REMARK   96  A    between atoms: _244  and  _245
REMARK   97  A    between atoms: _244  and  _247
REMARK   98  A    between atoms: _247  and  _248
REMARK   99  A    between atoms: _253  and  _255
REMARK  100  A    between atoms: _255  and  _256
REMARK  101  A    between atoms: _259  and  _261
REMARK  102  A    between atoms: _261  and  _262
REMARK  103  A    between atoms: _261  and  _264
REMARK  104  A    between atoms: _264  and  _265
REMARK  105  A    between atoms: _270  and  _272
REMARK  106  A    between atoms: _272  and  _273
REMARK  107  A    between atoms: _272  and  _275
REMARK  108  A    between atoms: _275  and  _276
REMARK  109  A    between atoms: _279  and  _281
REMARK  110  A    between atoms: _281  and  _282
REMARK  111  A    between atoms: _281  and  _284
REMARK  112  A    between atoms: _284  and  _285
REMARK  113  A    between atoms: _285  and  _286
REMARK  114  A    between atoms: _286  and  _288
REMARK  115  A    between atoms: _289  and  _291
REMARK  116  A    between atoms: _291  and  _292
REMARK  117  A    between atoms: _291  and  _294
REMARK  118  A    between atoms: _294  and  _295
REMARK  119  A    between atoms: _298  and  _300
REMARK  120  A    between atoms: _300  and  _301
REMARK  121  A    between atoms: _300  and  _303
REMARK  122  A    between atoms: _303  and  _304
REMARK  123  A    between atoms: _309  and  _311
REMARK  124  A    between atoms: _311  and  _312
REMARK  125  A    between atoms: _311  and  _314
REMARK  126  A    between atoms: _314  and  _315
REMARK  127  A    between atoms: _318  and  _320
REMARK  128  A    between atoms: _320  and  _321
REMARK  129  A    between atoms: _323  and  _325
REMARK  130  A    between atoms: _325  and  _326
REMARK  131  A    between atoms: _325  and  _328
REMARK  132  A    between atoms: _328  and  _329
REMARK  133  A    between atoms: _334  and  _335
REMARK  134  A    between atoms: _337  and  _339
REMARK  135  A    between atoms: _339  and  _340
REMARK  136  A    between atoms: _339  and  _342
REMARK  137  A    between atoms: _342  and  _343
REMARK  138  A    between atoms: _348  and  _349
REMARK  139  A    between atoms: _351  and  _353
REMARK  140  A    between atoms: _353  and  _354
REMARK  141  A    between atoms: _353  and  _356
REMARK  142  A    between atoms: _356  and  _357
REMARK  143  A    between atoms: _357  and  _358
REMARK  144  A    between atoms: _361  and  _363
REMARK  145  A    between atoms: _363  and  _364
REMARK  146  A    between atoms: _363  and  _366
REMARK  147  A    between atoms: _366  and  _367
REMARK  148  A    between atoms: _367  and  _368
REMARK  149  A    between atoms: _368  and  _369
REMARK  150  A    between atoms: _378  and  _380
REMARK  151  A    between atoms: _380  and  _381
REMARK  152  A    between atoms: _380  and  _383
REMARK  153  A    between atoms: _383  and  _384
REMARK                            x       y       z     vdW  Elec       q    Type
REMARK                         _______ _______ _______ _____ _____    ______ ____
ROOT
ATOM      1  O   HOH     1      23.915  -3.062  -6.538  0.00  0.00    +0.000 OA
ENDROOT
TORSDOF 0
REMARK  Name = ../refined-set-2016/3bpc/3bpc_pocket.pdb
REMARK  153 active torsions:
REMARK  status: ('A' for Active; 'I' for Inactive)
REMARK    1  A    between atoms: _1  and  _3
REMARK    2  A    between atoms: _3  and  _4
REMARK    3  A    between atoms: _3  and  _6
REMARK    4  A    between atoms: _6  and  _7
REMARK    5  A    between atoms: _12  and  _14
REMARK    6  A    between atoms: _14  and  _15
REMARK    7  A    between atoms: _14  and  _17
REMARK    8  A    between atoms: _17  and  _18
REMARK    9  A    between atoms: _20  and  _22
REMARK   10  A    between atoms: _22  and  _23
REMARK   11  A    between atoms: _22  and  _25
REMARK   12  A    between atoms: _25  and  _26
REMARK   13  A    between atoms: _26  and  _27
REMARK   14  A    between atoms: _27  and  _28
REMARK   15  A    between atoms: _37  and  _39
REMARK   16  A    between atoms: _39  and  _40
REMARK   17  A    between atoms: _39  and  _42
REMARK   18  A    between atoms: _42  and  _43
REMARK   19  A    between atoms: _46  and  _48
REMARK   20  A    between atoms: _48  and  _49
REMARK   21  A    between atoms: _48  and  _51
REMARK   22  A    between atoms: _51  and  _52
REMARK   23  A    between atoms: _52  and  _53
REMARK   24  A    between atoms: _53  and  _54
REMARK   25  A    between atoms: _63  and  _65
REMARK   26  A    between atoms: _65  and  _66
REMARK   27  A    between atoms: _65  and  _68
REMARK   28  A    between atoms: _68  and  _69
REMARK   29  A    between atoms: _69  and  _70
REMARK   30  A    between atoms: _70  and  _71
REMARK   31  A    between atoms: _71  and  _72
REMARK   32  A    between atoms: _76  and  _78
REMARK   33  A    between atoms: _78  and  _79
REMARK   34  A    between atoms: _78  and  _81
REMARK   35  A    between atoms: _81  and  _82
REMARK   36  A    between atoms: _87  and  _88
REMARK   37  A    between atoms: _90  and  _92
REMARK   38  A    between atoms: _92  and  _93
REMARK   39  A    between atoms: _92  and  _95
REMARK   40  A    between atoms: _95  and  _96
REMARK   41  A    between atoms: _106  and  _108
REMARK   42  A    between atoms: _108  and  _109
REMARK   43  A    between atoms: _108  and  _111
REMARK   44  A    between atoms: _111  and  _112
REMARK   45  A    between atoms: _112  and  _113
REMARK   46  A    between atoms: _113  and  _114
REMARK   47  A    between atoms: _114  and  _115
REMARK   48  A    between atoms: _119  and  _121
REMARK   49  A    between atoms: _121  and  _122
REMARK   50  A    between atoms: _121  and  _124
REMARK   51  A    between atoms: _124  and  _125
REMARK   52  A    between atoms: _125  and  _126
REMARK   53  A    between atoms: _131  and  _133
REMARK   54  A    between atoms: _133  and  _134
REMARK   55  A    between atoms: _133  and  _136
REMARK   56  A    between atoms: _136  and  _137
REMARK   57  A    between atoms: _139  and  _141
REMARK   58  A    between atoms: _141  and  _142
REMARK   59  A    between atoms: _141  and  _144
REMARK   60  A    between atoms: _144  and  _145
REMARK   61  A    between atoms: _150  and  _151
REMARK   62  A    between atoms: _153  and  _155
REMARK   63  A    between atoms: _155  and  _156
REMARK   64  A    between atoms: _155  and  _158
REMARK   65  A    between atoms: _158  and  _159
REMARK   66  A    between atoms: _164  and  _166
REMARK   67  A    between atoms: _166  and  _167
REMARK   68  A    between atoms: _166  and  _169
REMARK   69  A    between atoms: _169  and  _170
REMARK   70  A    between atoms: _173  and  _175
REMARK   71  A    between atoms: _175  and  _176
REMARK   72  A    between atoms: _175  and  _178
REMARK   73  A    between atoms: _178  and  _179
REMARK   74  A    between atoms: _179  and  _180
REMARK   75  A    between atoms: _180  and  _181
REMARK   76  A    between atoms: _190  and  _192
REMARK   77  A    between atoms: _192  and  _193
REMARK   78  A    between atoms: _192  and  _195
REMARK   79  A    between atoms: _195  and  _196
REMARK   80  A    between atoms: _201  and  _202
REMARK   81  A    between atoms: _204  and  _206
REMARK   82  A    between atoms: _206  and  _207
REMARK   83  A    between atoms: _206  and  _209
REMARK   84  A    between atoms: _209  and  _210
REMARK   85  A    between atoms: _216  and  _218
REMARK   86  A    between atoms: _218  and  _219
REMARK   87  A    between atoms: _218  and  _221
REMARK   88  A    between atoms: _221  and  _222
REMARK   89  A    between atoms: _225  and  _227
REMARK   90  A    between atoms: _227  and  _228
REMARK   91  A    between atoms: _227  and  _230
REMARK   92  A    between atoms: _230  and  _231
REMARK   93  A    between atoms: _231  and  _232
REMARK   94  A    between atoms: _232  and  _233
REMARK   95  A    between atoms: _242  and  _244
REMARK   96  A    between atoms: _244  and  _245
REMARK   97  A    between atoms: _244  and  _247
REMARK   98  A    between atoms: _247  and  _248
REMARK   99  A    between atoms: _253  and  _255
REMARK  100  A    between atoms: _255  and  _256
REMARK  101  A    between atoms: _259  and  _261
REMARK  102  A    between atoms: _261  and  _262
REMARK  103  A    between atoms: _261  and  _264
REMARK  104  A    between atoms: _264  and  _265
REMARK  105  A    between atoms: _270  and  _272
REMARK  106  A    between atoms: _272  and  _273
REMARK  107  A    between atoms: _272  and  _275
REMARK  108  A    between atoms: _275  and  _276
REMARK  109  A    between atoms: _279  and  _281
REMARK  110  A    between atoms: _281  and  _282
REMARK  111  A    between atoms: _281  and  _284
REMARK  112  A    between atoms: _284  and  _285
REMARK  113  A    between atoms: _285  and  _286
REMARK  114  A    between atoms: _286  and  _288
REMARK  115  A    between atoms: _289  and  _291
REMARK  116  A    between atoms: _291  and  _292
REMARK  117  A    between atoms: _291  and  _294
REMARK  118  A    between atoms: _294  and  _295
REMARK  119  A    between atoms: _298  and  _300
REMARK  120  A    between atoms: _300  and  _301
REMARK  121  A    between atoms: _300  and  _303
REMARK  122  A    between atoms: _303  and  _304
REMARK  123  A    between atoms: _309  and  _311
REMARK  124  A    between atoms: _311  and  _312
REMARK  125  A    between atoms: _311  and  _314
REMARK  126  A    between atoms: _314  and  _315
REMARK  127  A    between atoms: _318  and  _320
REMARK  128  A    between atoms: _320  and  _321
REMARK  129  A    between atoms: _323  and  _325
REMARK  130  A    between atoms: _325  and  _326
REMARK  131  A    between atoms: _325  and  _328
REMARK  132  A    between atoms: _328  and  _329
REMARK  133  A    between atoms: _334  and  _335
REMARK  134  A    between atoms: _337  and  _339
REMARK  135  A    between atoms: _339  and  _340
REMARK  136  A    between atoms: _339  and  _342
REMARK  137  A    between atoms: _342  and  _343
REMARK  138  A    between atoms: _348  and  _349
REMARK  139  A    between atoms: _351  and  _353
REMARK  140  A    between atoms: _353  and  _354
REMARK  141  A    between atoms: _353  and  _356
REMARK  142  A    between atoms: _356  and  _357
REMARK  143  A    between atoms: _357  and  _358
REMARK  144  A    between atoms: _361  and  _363
REMARK  145  A    between atoms: _363  and  _364
REMARK  146  A    between atoms: _363  and  _366
REMARK  147  A    between atoms: _366  and  _367
REMARK  148  A    between atoms: _367  and  _368
REMARK  149  A    between atoms: _368  and  _369
REMARK  150  A    between atoms: _378  and  _380
REMARK  151  A    between atoms: _380  and  _381
REMARK  152  A    between atoms: _380  and  _383
REMARK  153  A    between atoms: _383  and  _384
REMARK                            x       y       z     vdW  Elec       q    Type
REMARK                         _______ _______ _______ _____ _____    ______ ____
ROOT
ATOM      1  O   HOH     1      32.914 -12.596   2.357  0.00  0.00    +0.000 OA
ENDROOT
TORSDOF 0
REMARK  Name = ../refined-set-2016/3bpc/3bpc_pocket.pdb
REMARK  153 active torsions:
REMARK  status: ('A' for Active; 'I' for Inactive)
REMARK    1  A    between atoms: _1  and  _3
REMARK    2  A    between atoms: _3  and  _4
REMARK    3  A    between atoms: _3  and  _6
REMARK    4  A    between atoms: _6  and  _7
REMARK    5  A    between atoms: _12  and  _14
REMARK    6  A    between atoms: _14  and  _15
REMARK    7  A    between atoms: _14  and  _17
REMARK    8  A    between atoms: _17  and  _18
REMARK    9  A    between atoms: _20  and  _22
REMARK   10  A    between atoms: _22  and  _23
REMARK   11  A    between atoms: _22  and  _25
REMARK   12  A    between atoms: _25  and  _26
REMARK   13  A    between atoms: _26  and  _27
REMARK   14  A    between atoms: _27  and  _28
REMARK   15  A    between atoms: _37  and  _39
REMARK   16  A    between atoms: _39  and  _40
REMARK   17  A    between atoms: _39  and  _42
REMARK   18  A    between atoms: _42  and  _43
REMARK   19  A    between atoms: _46  and  _48
REMARK   20  A    between atoms: _48  and  _49
REMARK   21  A    between atoms: _48  and  _51
REMARK   22  A    between atoms: _51  and  _52
REMARK   23  A    between atoms: _52  and  _53
REMARK   24  A    between atoms: _53  and  _54
REMARK   25  A    between atoms: _63  and  _65
REMARK   26  A    between atoms: _65  and  _66
REMARK   27  A    between atoms: _65  and  _68
REMARK   28  A    between atoms: _68  and  _69
REMARK   29  A    between atoms: _69  and  _70
REMARK   30  A    between atoms: _70  and  _71
REMARK   31  A    between atoms: _71  and  _72
REMARK   32  A    between atoms: _76  and  _78
REMARK   33  A    between atoms: _78  and  _79
REMARK   34  A    between atoms: _78  and  _81
REMARK   35  A    between atoms: _81  and  _82
REMARK   36  A    between atoms: _87  and  _88
REMARK   37  A    between atoms: _90  and  _92
REMARK   38  A    between atoms: _92  and  _93
REMARK   39  A    between atoms: _92  and  _95
REMARK   40  A    between atoms: _95  and  _96
REMARK   41  A    between atoms: _106  and  _108
REMARK   42  A    between atoms: _108  and  _109
REMARK   43  A    between atoms: _108  and  _111
REMARK   44  A    between atoms: _111  and  _112
REMARK   45  A    between atoms: _112  and  _113
REMARK   46  A    between atoms: _113  and  _114
REMARK   47  A    between atoms: _114  and  _115
REMARK   48  A    between atoms: _119  and  _121
REMARK   49  A    between atoms: _121  and  _122
REMARK   50  A    between atoms: _121  and  _124
REMARK   51  A    between atoms: _124  and  _125
REMARK   52  A    between atoms: _125  and  _126
REMARK   53  A    between atoms: _131  and  _133
REMARK   54  A    between atoms: _133  and  _134
REMARK   55  A    between atoms: _133  and  _136
REMARK   56  A    between atoms: _136  and  _137
REMARK   57  A    between atoms: _139  and  _141
REMARK   58  A    between atoms: _141  and  _142
REMARK   59  A    between atoms: _141  and  _144
REMARK   60  A    between atoms: _144  and  _145
REMARK   61  A    between atoms: _150  and  _151
REMARK   62  A    between atoms: _153  and  _155
REMARK   63  A    between atoms: _155  and  _156
REMARK   64  A    between atoms: _155  and  _158
REMARK   65  A    between atoms: _158  and  _159
REMARK   66  A    between atoms: _164  and  _166
REMARK   67  A    between atoms: _166  and  _167
REMARK   68  A    between atoms: _166  and  _169
REMARK   69  A    between atoms: _169  and  _170
REMARK   70  A    between atoms: _173  and  _175
REMARK   71  A    between atoms: _175  and  _176
REMARK   72  A    between atoms: _175  and  _178
REMARK   73  A    between atoms: _178  and  _179
REMARK   74  A    between atoms: _179  and  _180
REMARK   75  A    between atoms: _180  and  _181
REMARK   76  A    between atoms: _190  and  _192
REMARK   77  A    between atoms: _192  and  _193
REMARK   78  A    between atoms: _192  and  _195
REMARK   79  A    between atoms: _195  and  _196
REMARK   80  A    between atoms: _201  and  _202
REMARK   81  A    between atoms: _204  and  _206
REMARK   82  A    between atoms: _206  and  _207
REMARK   83  A    between atoms: _206  and  _209
REMARK   84  A    between atoms: _209  and  _210
REMARK   85  A    between atoms: _216  and  _218
REMARK   86  A    between atoms: _218  and  _219
REMARK   87  A    between atoms: _218  and  _221
REMARK   88  A    between atoms: _221  and  _222
REMARK   89  A    between atoms: _225  and  _227
REMARK   90  A    between atoms: _227  and  _228
REMARK   91  A    between atoms: _227  and  _230
REMARK   92  A    between atoms: _230  and  _231
REMARK   93  A    between atoms: _231  and  _232
REMARK   94  A    between atoms: _232  and  _233
REMARK   95  A    between atoms: _242  and  _244
REMARK   96  A    between atoms: _244  and  _245
REMARK   97  A    between atoms: _244  and  _247
REMARK   98  A    between atoms: _247  and  _248
REMARK   99  A    between atoms: _253  and  _255
REMARK  100  A    between atoms: _255  and  _256
REMARK  101  A    between atoms: _259  and  _261
REMARK  102  A    between atoms: _261  and  _262
REMARK  103  A    between atoms: _261  and  _264
REMARK  104  A    between atoms: _264  and  _265
REMARK  105  A    between atoms: _270  and  _272
REMARK  106  A    between atoms: _272  and  _273
REMARK  107  A    between atoms: _272  and  _275
REMARK  108  A    between atoms: _275  and  _276
REMARK  109  A    between atoms: _279  and  _281
REMARK  110  A    between atoms: _281  and  _282
REMARK  111  A    between atoms: _281  and  _284
REMARK  112  A    between atoms: _284  and  _285
REMARK  113  A    between atoms: _285  and  _286
REMARK  114  A    between atoms: _286  and  _288
REMARK  115  A    between atoms: _289  and  _291
REMARK  116  A    between atoms: _291  and  _292
REMARK  117  A    between atoms: _291  and  _294
REMARK  118  A    between atoms: _294  and  _295
REMARK  119  A    between atoms: _298  and  _300
REMARK  120  A    between atoms: _300  and  _301
REMARK  121  A    between atoms: _300  and  _303
REMARK  122  A    between atoms: _303  and  _304
REMARK  123  A    between atoms: _309  and  _311
REMARK  124  A    between atoms: _311  and  _312
REMARK  125  A    between atoms: _311  and  _314
REMARK  126  A    between atoms: _314  and  _315
REMARK  127  A    between atoms: _318  and  _320
REMARK  128  A    between atoms: _320  and  _321
REMARK  129  A    between atoms: _323  and  _325
REMARK  130  A    between atoms: _325  and  _326
REMARK  131  A    between atoms: _325  and  _328
REMARK  132  A    between atoms: _328  and  _329
REMARK  133  A    between atoms: _334  and  _335
REMARK  134  A    between atoms: _337  and  _339
REMARK  135  A    between atoms: _339  and  _340
REMARK  136  A    between atoms: _339  and  _342
REMARK  137  A    between atoms: _342  and  _343
REMARK  138  A    between atoms: _348  and  _349
REMARK  139  A    between atoms: _351  and  _353
REMARK  140  A    between atoms: _353  and  _354
REMARK  141  A    between atoms: _353  and  _356
REMARK  142  A    between atoms: _356  and  _357
REMARK  143  A    between atoms: _357  and  _358
REMARK  144  A    between atoms: _361  and  _363
REMARK  145  A    between atoms: _363  and  _364
REMARK  146  A    between atoms: _363  and  _366
REMARK  147  A    between atoms: _366  and  _367
REMARK  148  A    between atoms: _367  and  _368
REMARK  149  A    between atoms: _368  and  _369
REMARK  150  A    between atoms: _378  and  _380
REMARK  151  A    between atoms: _380  and  _381
REMARK  152  A    between atoms: _380  and  _383
REMARK  153  A    between atoms: _383  and  _384
REMARK                            x       y       z     vdW  Elec       q    Type
REMARK                         _______ _______ _______ _____ _____    ______ ____
ROOT
ATOM      1  O   HOH     1      28.539 -11.946   4.219  0.00  0.00    +0.000 OA
ENDROOT
TORSDOF 0
REMARK  Name = ../refined-set-2016/3bpc/3bpc_pocket.pdb
REMARK  153 active torsions:
REMARK  status: ('A' for Active; 'I' for Inactive)
REMARK    1  A    between atoms: _1  and  _3
REMARK    2  A    between atoms: _3  and  _4
REMARK    3  A    between atoms: _3  and  _6
REMARK    4  A    between atoms: _6  and  _7
REMARK    5  A    between atoms: _12  and  _14
REMARK    6  A    between atoms: _14  and  _15
REMARK    7  A    between atoms: _14  and  _17
REMARK    8  A    between atoms: _17  and  _18
REMARK    9  A    between atoms: _20  and  _22
REMARK   10  A    between atoms: _22  and  _23
REMARK   11  A    between atoms: _22  and  _25
REMARK   12  A    between atoms: _25  and  _26
REMARK   13  A    between atoms: _26  and  _27
REMARK   14  A    between atoms: _27  and  _28
REMARK   15  A    between atoms: _37  and  _39
REMARK   16  A    between atoms: _39  and  _40
REMARK   17  A    between atoms: _39  and  _42
REMARK   18  A    between atoms: _42  and  _43
REMARK   19  A    between atoms: _46  and  _48
REMARK   20  A    between atoms: _48  and  _49
REMARK   21  A    between atoms: _48  and  _51
REMARK   22  A    between atoms: _51  and  _52
REMARK   23  A    between atoms: _52  and  _53
REMARK   24  A    between atoms: _53  and  _54
REMARK   25  A    between atoms: _63  and  _65
REMARK   26  A    between atoms: _65  and  _66
REMARK   27  A    between atoms: _65  and  _68
REMARK   28  A    between atoms: _68  and  _69
REMARK   29  A    between atoms: _69  and  _70
REMARK   30  A    between atoms: _70  and  _71
REMARK   31  A    between atoms: _71  and  _72
REMARK   32  A    between atoms: _76  and  _78
REMARK   33  A    between atoms: _78  and  _79
REMARK   34  A    between atoms: _78  and  _81
REMARK   35  A    between atoms: _81  and  _82
REMARK   36  A    between atoms: _87  and  _88
REMARK   37  A    between atoms: _90  and  _92
REMARK   38  A    between atoms: _92  and  _93
REMARK   39  A    between atoms: _92  and  _95
REMARK   40  A    between atoms: _95  and  _96
REMARK   41  A    between atoms: _106  and  _108
REMARK   42  A    between atoms: _108  and  _109
REMARK   43  A    between atoms: _108  and  _111
REMARK   44  A    between atoms: _111  and  _112
REMARK   45  A    between atoms: _112  and  _113
REMARK   46  A    between atoms: _113  and  _114
REMARK   47  A    between atoms: _114  and  _115
REMARK   48  A    between atoms: _119  and  _121
REMARK   49  A    between atoms: _121  and  _122
REMARK   50  A    between atoms: _121  and  _124
REMARK   51  A    between atoms: _124  and  _125
REMARK   52  A    between atoms: _125  and  _126
REMARK   53  A    between atoms: _131  and  _133
REMARK   54  A    between atoms: _133  and  _134
REMARK   55  A    between atoms: _133  and  _136
REMARK   56  A    between atoms: _136  and  _137
REMARK   57  A    between atoms: _139  and  _141
REMARK   58  A    between atoms: _141  and  _142
REMARK   59  A    between atoms: _141  and  _144
REMARK   60  A    between atoms: _144  and  _145
REMARK   61  A    between atoms: _150  and  _151
REMARK   62  A    between atoms: _153  and  _155
REMARK   63  A    between atoms: _155  and  _156
REMARK   64  A    between atoms: _155  and  _158
REMARK   65  A    between atoms: _158  and  _159
REMARK   66  A    between atoms: _164  and  _166
REMARK   67  A    between atoms: _166  and  _167
REMARK   68  A    between atoms: _166  and  _169
REMARK   69  A    between atoms: _169  and  _170
REMARK   70  A    between atoms: _173  and  _175
REMARK   71  A    between atoms: _175  and  _176
REMARK   72  A    between atoms: _175  and  _178
REMARK   73  A    between atoms: _178  and  _179
REMARK   74  A    between atoms: _179  and  _180
REMARK   75  A    between atoms: _180  and  _181
REMARK   76  A    between atoms: _190  and  _192
REMARK   77  A    between atoms: _192  and  _193
REMARK   78  A    between atoms: _192  and  _195
REMARK   79  A    between atoms: _195  and  _196
REMARK   80  A    between atoms: _201  and  _202
REMARK   81  A    between atoms: _204  and  _206
REMARK   82  A    between atoms: _206  and  _207
REMARK   83  A    between atoms: _206  and  _209
REMARK   84  A    between atoms: _209  and  _210
REMARK   85  A    between atoms: _216  and  _218
REMARK   86  A    between atoms: _218  and  _219
REMARK   87  A    between atoms: _218  and  _221
REMARK   88  A    between atoms: _221  and  _222
REMARK   89  A    between atoms: _225  and  _227
REMARK   90  A    between atoms: _227  and  _228
REMARK   91  A    between atoms: _227  and  _230
REMARK   92  A    between atoms: _230  and  _231
REMARK   93  A    between atoms: _231  and  _232
REMARK   94  A    between atoms: _232  and  _233
REMARK   95  A    between atoms: _242  and  _244
REMARK   96  A    between atoms: _244  and  _245
REMARK   97  A    between atoms: _244  and  _247
REMARK   98  A    between atoms: _247  and  _248
REMARK   99  A    between atoms: _253  and  _255
REMARK  100  A    between atoms: _255  and  _256
REMARK  101  A    between atoms: _259  and  _261
REMARK  102  A    between atoms: _261  and  _262
REMARK  103  A    between atoms: _261  and  _264
REMARK  104  A    between atoms: _264  and  _265
REMARK  105  A    between atoms: _270  and  _272
REMARK  106  A    between atoms: _272  and  _273
REMARK  107  A    between atoms: _272  and  _275
REMARK  108  A    between atoms: _275  and  _276
REMARK  109  A    between atoms: _279  and  _281
REMARK  110  A    between atoms: _281  and  _282
REMARK  111  A    between atoms: _281  and  _284
REMARK  112  A    between atoms: _284  and  _285
REMARK  113  A    between atoms: _285  and  _286
REMARK  114  A    between atoms: _286  and  _288
REMARK  115  A    between atoms: _289  and  _291
REMARK  116  A    between atoms: _291  and  _292
REMARK  117  A    between atoms: _291  and  _294
REMARK  118  A    between atoms: _294  and  _295
REMARK  119  A    between atoms: _298  and  _300
REMARK  120  A    between atoms: _300  and  _301
REMARK  121  A    between atoms: _300  and  _303
REMARK  122  A    between atoms: _303  and  _304
REMARK  123  A    between atoms: _309  and  _311
REMARK  124  A    between atoms: _311  and  _312
REMARK  125  A    between atoms: _311  and  _314
REMARK  126  A    between atoms: _314  and  _315
REMARK  127  A    between atoms: _318  and  _320
REMARK  128  A    between atoms: _320  and  _321
REMARK  129  A    between atoms: _323  and  _325
REMARK  130  A    between atoms: _325  and  _326
REMARK  131  A    between atoms: _325  and  _328
REMARK  132  A    between atoms: _328  and  _329
REMARK  133  A    between atoms: _334  and  _335
REMARK  134  A    between atoms: _337  and  _339
REMARK  135  A    between atoms: _339  and  _340
REMARK  136  A    between atoms: _339  and  _342
REMARK  137  A    between atoms: _342  and  _343
REMARK  138  A    between atoms: _348  and  _349
REMARK  139  A    between atoms: _351  and  _353
REMARK  140  A    between atoms: _353  and  _354
REMARK  141  A    between atoms: _353  and  _356
REMARK  142  A    between atoms: _356  and  _357
REMARK  143  A    between atoms: _357  and  _358
REMARK  144  A    between atoms: _361  and  _363
REMARK  145  A    between atoms: _363  and  _364
REMARK  146  A    between atoms: _363  and  _366
REMARK  147  A    between atoms: _366  and  _367
REMARK  148  A    between atoms: _367  and  _368
REMARK  149  A    between atoms: _368  and  _369
REMARK  150  A    between atoms: _378  and  _380
REMARK  151  A    between atoms: _380  and  _381
REMARK  152  A    between atoms: _380  and  _383
REMARK  153  A    between atoms: _383  and  _384
REMARK                            x       y       z     vdW  Elec       q    Type
REMARK                         _______ _______ _______ _____ _____    ______ ____
ROOT
ATOM      1  O   HOH     1      38.111   3.667   0.641  0.00  0.00    +0.000 OA
ENDROOT
TORSDOF 0
REMARK  Name = ../refined-set-2016/3bpc/3bpc_pocket.pdb
REMARK  153 active torsions:
REMARK  status: ('A' for Active; 'I' for Inactive)
REMARK    1  A    between atoms: _1  and  _3
REMARK    2  A    between atoms: _3  and  _4
REMARK    3  A    between atoms: _3  and  _6
REMARK    4  A    between atoms: _6  and  _7
REMARK    5  A    between atoms: _12  and  _14
REMARK    6  A    between atoms: _14  and  _15
REMARK    7  A    between atoms: _14  and  _17
REMARK    8  A    between atoms: _17  and  _18
REMARK    9  A    between atoms: _20  and  _22
REMARK   10  A    between atoms: _22  and  _23
REMARK   11  A    between atoms: _22  and  _25
REMARK   12  A    between atoms: _25  and  _26
REMARK   13  A    between atoms: _26  and  _27
REMARK   14  A    between atoms: _27  and  _28
REMARK   15  A    between atoms: _37  and  _39
REMARK   16  A    between atoms: _39  and  _40
REMARK   17  A    between atoms: _39  and  _42
REMARK   18  A    between atoms: _42  and  _43
REMARK   19  A    between atoms: _46  and  _48
REMARK   20  A    between atoms: _48  and  _49
REMARK   21  A    between atoms: _48  and  _51
REMARK   22  A    between atoms: _51  and  _52
REMARK   23  A    between atoms: _52  and  _53
REMARK   24  A    between atoms: _53  and  _54
REMARK   25  A    between atoms: _63  and  _65
REMARK   26  A    between atoms: _65  and  _66
REMARK   27  A    between atoms: _65  and  _68
REMARK   28  A    between atoms: _68  and  _69
REMARK   29  A    between atoms: _69  and  _70
REMARK   30  A    between atoms: _70  and  _71
REMARK   31  A    between atoms: _71  and  _72
REMARK   32  A    between atoms: _76  and  _78
REMARK   33  A    between atoms: _78  and  _79
REMARK   34  A    between atoms: _78  and  _81
REMARK   35  A    between atoms: _81  and  _82
REMARK   36  A    between atoms: _87  and  _88
REMARK   37  A    between atoms: _90  and  _92
REMARK   38  A    between atoms: _92  and  _93
REMARK   39  A    between atoms: _92  and  _95
REMARK   40  A    between atoms: _95  and  _96
REMARK   41  A    between atoms: _106  and  _108
REMARK   42  A    between atoms: _108  and  _109
REMARK   43  A    between atoms: _108  and  _111
REMARK   44  A    between atoms: _111  and  _112
REMARK   45  A    between atoms: _112  and  _113
REMARK   46  A    between atoms: _113  and  _114
REMARK   47  A    between atoms: _114  and  _115
REMARK   48  A    between atoms: _119  and  _121
REMARK   49  A    between atoms: _121  and  _122
REMARK   50  A    between atoms: _121  and  _124
REMARK   51  A    between atoms: _124  and  _125
REMARK   52  A    between atoms: _125  and  _126
REMARK   53  A    between atoms: _131  and  _133
REMARK   54  A    between atoms: _133  and  _134
REMARK   55  A    between atoms: _133  and  _136
REMARK   56  A    between atoms: _136  and  _137
REMARK   57  A    between atoms: _139  and  _141
REMARK   58  A    between atoms: _141  and  _142
REMARK   59  A    between atoms: _141  and  _144
REMARK   60  A    between atoms: _144  and  _145
REMARK   61  A    between atoms: _150  and  _151
REMARK   62  A    between atoms: _153  and  _155
REMARK   63  A    between atoms: _155  and  _156
REMARK   64  A    between atoms: _155  and  _158
REMARK   65  A    between atoms: _158  and  _159
REMARK   66  A    between atoms: _164  and  _166
REMARK   67  A    between atoms: _166  and  _167
REMARK   68  A    between atoms: _166  and  _169
REMARK   69  A    between atoms: _169  and  _170
REMARK   70  A    between atoms: _173  and  _175
REMARK   71  A    between atoms: _175  and  _176
REMARK   72  A    between atoms: _175  and  _178
REMARK   73  A    between atoms: _178  and  _179
REMARK   74  A    between atoms: _179  and  _180
REMARK   75  A    between atoms: _180  and  _181
REMARK   76  A    between atoms: _190  and  _192
REMARK   77  A    between atoms: _192  and  _193
REMARK   78  A    between atoms: _192  and  _195
REMARK   79  A    between atoms: _195  and  _196
REMARK   80  A    between atoms: _201  and  _202
REMARK   81  A    between atoms: _204  and  _206
REMARK   82  A    between atoms: _206  and  _207
REMARK   83  A    between atoms: _206  and  _209
REMARK   84  A    between atoms: _209  and  _210
REMARK   85  A    between atoms: _216  and  _218
REMARK   86  A    between atoms: _218  and  _219
REMARK   87  A    between atoms: _218  and  _221
REMARK   88  A    between atoms: _221  and  _222
REMARK   89  A    between atoms: _225  and  _227
REMARK   90  A    between atoms: _227  and  _228
REMARK   91  A    between atoms: _227  and  _230
REMARK   92  A    between atoms: _230  and  _231
REMARK   93  A    between atoms: _231  and  _232
REMARK   94  A    between atoms: _232  and  _233
REMARK   95  A    between atoms: _242  and  _244
REMARK   96  A    between atoms: _244  and  _245
REMARK   97  A    between atoms: _244  and  _247
REMARK   98  A    between atoms: _247  and  _248
REMARK   99  A    between atoms: _253  and  _255
REMARK  100  A    between atoms: _255  and  _256
REMARK  101  A    between atoms: _259  and  _261
REMARK  102  A    between atoms: _261  and  _262
REMARK  103  A    between atoms: _261  and  _264
REMARK  104  A    between atoms: _264  and  _265
REMARK  105  A    between atoms: _270  and  _272
REMARK  106  A    between atoms: _272  and  _273
REMARK  107  A    between atoms: _272  and  _275
REMARK  108  A    between atoms: _275  and  _276
REMARK  109  A    between atoms: _279  and  _281
REMARK  110  A    between atoms: _281  and  _282
REMARK  111  A    between atoms: _281  and  _284
REMARK  112  A    between atoms: _284  and  _285
REMARK  113  A    between atoms: _285  and  _286
REMARK  114  A    between atoms: _286  and  _288
REMARK  115  A    between atoms: _289  and  _291
REMARK  116  A    between atoms: _291  and  _292
REMARK  117  A    between atoms: _291  and  _294
REMARK  118  A    between atoms: _294  and  _295
REMARK  119  A    between atoms: _298  and  _300
REMARK  120  A    between atoms: _300  and  _301
REMARK  121  A    between atoms: _300  and  _303
REMARK  122  A    between atoms: _303  and  _304
REMARK  123  A    between atoms: _309  and  _311
REMARK  124  A    between atoms: _311  and  _312
REMARK  125  A    between atoms: _311  and  _314
REMARK  126  A    between atoms: _314  and  _315
REMARK  127  A    between atoms: _318  and  _320
REMARK  128  A    between atoms: _320  and  _321
REMARK  129  A    between atoms: _323  and  _325
REMARK  130  A    between atoms: _325  and  _326
REMARK  131  A    between atoms: _325  and  _328
REMARK  132  A    between atoms: _328  and  _329
REMARK  133  A    between atoms: _334  and  _335
REMARK  134  A    between atoms: _337  and  _339
REMARK  135  A    between atoms: _339  and  _340
REMARK  136  A    between atoms: _339  and  _342
REMARK  137  A    between atoms: _342  and  _343
REMARK  138  A    between atoms: _348  and  _349
REMARK  139  A    between atoms: _351  and  _353
REMARK  140  A    between atoms: _353  and  _354
REMARK  141  A    between atoms: _353  and  _356
REMARK  142  A    between atoms: _356  and  _357
REMARK  143  A    between atoms: _357  and  _358
REMARK  144  A    between atoms: _361  and  _363
REMARK  145  A    between atoms: _363  and  _364
REMARK  146  A    between atoms: _363  and  _366
REMARK  147  A    between atoms: _366  and  _367
REMARK  148  A    between atoms: _367  and  _368
REMARK  149  A    between atoms: _368  and  _369
REMARK  150  A    between atoms: _378  and  _380
REMARK  151  A    between atoms: _380  and  _381
REMARK  152  A    between atoms: _380  and  _383
REMARK  153  A    between atoms: _383  and  _384
REMARK                            x       y       z     vdW  Elec       q    Type
REMARK                         _______ _______ _______ _____ _____    ______ ____
ROOT
ATOM      1  O   HOH     1      31.379  -3.442  -1.812  0.00  0.00    +0.000 OA
ENDROOT
TORSDOF 0
REMARK  Name = ../refined-set-2016/3bpc/3bpc_pocket.pdb
REMARK  153 active torsions:
REMARK  status: ('A' for Active; 'I' for Inactive)
REMARK    1  A    between atoms: _1  and  _3
REMARK    2  A    between atoms: _3  and  _4
REMARK    3  A    between atoms: _3  and  _6
REMARK    4  A    between atoms: _6  and  _7
REMARK    5  A    between atoms: _12  and  _14
REMARK    6  A    between atoms: _14  and  _15
REMARK    7  A    between atoms: _14  and  _17
REMARK    8  A    between atoms: _17  and  _18
REMARK    9  A    between atoms: _20  and  _22
REMARK   10  A    between atoms: _22  and  _23
REMARK   11  A    between atoms: _22  and  _25
REMARK   12  A    between atoms: _25  and  _26
REMARK   13  A    between atoms: _26  and  _27
REMARK   14  A    between atoms: _27  and  _28
REMARK   15  A    between atoms: _37  and  _39
REMARK   16  A    between atoms: _39  and  _40
REMARK   17  A    between atoms: _39  and  _42
REMARK   18  A    between atoms: _42  and  _43
REMARK   19  A    between atoms: _46  and  _48
REMARK   20  A    between atoms: _48  and  _49
REMARK   21  A    between atoms: _48  and  _51
REMARK   22  A    between atoms: _51  and  _52
REMARK   23  A    between atoms: _52  and  _53
REMARK   24  A    between atoms: _53  and  _54
REMARK   25  A    between atoms: _63  and  _65
REMARK   26  A    between atoms: _65  and  _66
REMARK   27  A    between atoms: _65  and  _68
REMARK   28  A    between atoms: _68  and  _69
REMARK   29  A    between atoms: _69  and  _70
REMARK   30  A    between atoms: _70  and  _71
REMARK   31  A    between atoms: _71  and  _72
REMARK   32  A    between atoms: _76  and  _78
REMARK   33  A    between atoms: _78  and  _79
REMARK   34  A    between atoms: _78  and  _81
REMARK   35  A    between atoms: _81  and  _82
REMARK   36  A    between atoms: _87  and  _88
REMARK   37  A    between atoms: _90  and  _92
REMARK   38  A    between atoms: _92  and  _93
REMARK   39  A    between atoms: _92  and  _95
REMARK   40  A    between atoms: _95  and  _96
REMARK   41  A    between atoms: _106  and  _108
REMARK   42  A    between atoms: _108  and  _109
REMARK   43  A    between atoms: _108  and  _111
REMARK   44  A    between atoms: _111  and  _112
REMARK   45  A    between atoms: _112  and  _113
REMARK   46  A    between atoms: _113  and  _114
REMARK   47  A    between atoms: _114  and  _115
REMARK   48  A    between atoms: _119  and  _121
REMARK   49  A    between atoms: _121  and  _122
REMARK   50  A    between atoms: _121  and  _124
REMARK   51  A    between atoms: _124  and  _125
REMARK   52  A    between atoms: _125  and  _126
REMARK   53  A    between atoms: _131  and  _133
REMARK   54  A    between atoms: _133  and  _134
REMARK   55  A    between atoms: _133  and  _136
REMARK   56  A    between atoms: _136  and  _137
REMARK   57  A    between atoms: _139  and  _141
REMARK   58  A    between atoms: _141  and  _142
REMARK   59  A    between atoms: _141  and  _144
REMARK   60  A    between atoms: _144  and  _145
REMARK   61  A    between atoms: _150  and  _151
REMARK   62  A    between atoms: _153  and  _155
REMARK   63  A    between atoms: _155  and  _156
REMARK   64  A    between atoms: _155  and  _158
REMARK   65  A    between atoms: _158  and  _159
REMARK   66  A    between atoms: _164  and  _166
REMARK   67  A    between atoms: _166  and  _167
REMARK   68  A    between atoms: _166  and  _169
REMARK   69  A    between atoms: _169  and  _170
REMARK   70  A    between atoms: _173  and  _175
REMARK   71  A    between atoms: _175  and  _176
REMARK   72  A    between atoms: _175  and  _178
REMARK   73  A    between atoms: _178  and  _179
REMARK   74  A    between atoms: _179  and  _180
REMARK   75  A    between atoms: _180  and  _181
REMARK   76  A    between atoms: _190  and  _192
REMARK   77  A    between atoms: _192  and  _193
REMARK   78  A    between atoms: _192  and  _195
REMARK   79  A    between atoms: _195  and  _196
REMARK   80  A    between atoms: _201  and  _202
REMARK   81  A    between atoms: _204  and  _206
REMARK   82  A    between atoms: _206  and  _207
REMARK   83  A    between atoms: _206  and  _209
REMARK   84  A    between atoms: _209  and  _210
REMARK   85  A    between atoms: _216  and  _218
REMARK   86  A    between atoms: _218  and  _219
REMARK   87  A    between atoms: _218  and  _221
REMARK   88  A    between atoms: _221  and  _222
REMARK   89  A    between atoms: _225  and  _227
REMARK   90  A    between atoms: _227  and  _228
REMARK   91  A    between atoms: _227  and  _230
REMARK   92  A    between atoms: _230  and  _231
REMARK   93  A    between atoms: _231  and  _232
REMARK   94  A    between atoms: _232  and  _233
REMARK   95  A    between atoms: _242  and  _244
REMARK   96  A    between atoms: _244  and  _245
REMARK   97  A    between atoms: _244  and  _247
REMARK   98  A    between atoms: _247  and  _248
REMARK   99  A    between atoms: _253  and  _255
REMARK  100  A    between atoms: _255  and  _256
REMARK  101  A    between atoms: _259  and  _261
REMARK  102  A    between atoms: _261  and  _262
REMARK  103  A    between atoms: _261  and  _264
REMARK  104  A    between atoms: _264  and  _265
REMARK  105  A    between atoms: _270  and  _272
REMARK  106  A    between atoms: _272  and  _273
REMARK  107  A    between atoms: _272  and  _275
REMARK  108  A    between atoms: _275  and  _276
REMARK  109  A    between atoms: _279  and  _281
REMARK  110  A    between atoms: _281  and  _282
REMARK  111  A    between atoms: _281  and  _284
REMARK  112  A    between atoms: _284  and  _285
REMARK  113  A    between atoms: _285  and  _286
REMARK  114  A    between atoms: _286  and  _288
REMARK  115  A    between atoms: _289  and  _291
REMARK  116  A    between atoms: _291  and  _292
REMARK  117  A    between atoms: _291  and  _294
REMARK  118  A    between atoms: _294  and  _295
REMARK  119  A    between atoms: _298  and  _300
REMARK  120  A    between atoms: _300  and  _301
REMARK  121  A    between atoms: _300  and  _303
REMARK  122  A    between atoms: _303  and  _304
REMARK  123  A    between atoms: _309  and  _311
REMARK  124  A    between atoms: _311  and  _312
REMARK  125  A    between atoms: _311  and  _314
REMARK  126  A    between atoms: _314  and  _315
REMARK  127  A    between atoms: _318  and  _320
REMARK  128  A    between atoms: _320  and  _321
REMARK  129  A    between atoms: _323  and  _325
REMARK  130  A    between atoms: _325  and  _326
REMARK  131  A    between atoms: _325  and  _328
REMARK  132  A    between atoms: _328  and  _329
REMARK  133  A    between atoms: _334  and  _335
REMARK  134  A    between atoms: _337  and  _339
REMARK  135  A    between atoms: _339  and  _340
REMARK  136  A    between atoms: _339  and  _342
REMARK  137  A    between atoms: _342  and  _343
REMARK  138  A    between atoms: _348  and  _349
REMARK  139  A    between atoms: _351  and  _353
REMARK  140  A    between atoms: _353  and  _354
REMARK  141  A    between atoms: _353  and  _356
REMARK  142  A    between atoms: _356  and  _357
REMARK  143  A    between atoms: _357  and  _358
REMARK  144  A    between atoms: _361  and  _363
REMARK  145  A    between atoms: _363  and  _364
REMARK  146  A    between atoms: _363  and  _366
REMARK  147  A    between atoms: _366  and  _367
REMARK  148  A    between atoms: _367  and  _368
REMARK  149  A    between atoms: _368  and  _369
REMARK  150  A    between atoms: _378  and  _380
REMARK  151  A    between atoms: _380  and  _381
REMARK  152  A    between atoms: _380  and  _383
REMARK  153  A    between atoms: _383  and  _384
REMARK                            x       y       z     vdW  Elec       q    Type
REMARK                         _______ _______ _______ _____ _____    ______ ____
ROOT
ATOM      1  O   HOH     1      26.329  -0.795   2.978  0.00  0.00    +0.000 OA
ENDROOT
TORSDOF 0
REMARK  Name = ../refined-set-2016/3bpc/3bpc_pocket.pdb
REMARK  153 active torsions:
REMARK  status: ('A' for Active; 'I' for Inactive)
REMARK    1  A    between atoms: _1  and  _3
REMARK    2  A    between atoms: _3  and  _4
REMARK    3  A    between atoms: _3  and  _6
REMARK    4  A    between atoms: _6  and  _7
REMARK    5  A    between atoms: _12  and  _14
REMARK    6  A    between atoms: _14  and  _15
REMARK    7  A    between atoms: _14  and  _17
REMARK    8  A    between atoms: _17  and  _18
REMARK    9  A    between atoms: _20  and  _22
REMARK   10  A    between atoms: _22  and  _23
REMARK   11  A    between atoms: _22  and  _25
REMARK   12  A    between atoms: _25  and  _26
REMARK   13  A    between atoms: _26  and  _27
REMARK   14  A    between atoms: _27  and  _28
REMARK   15  A    between atoms: _37  and  _39
REMARK   16  A    between atoms: _39  and  _40
REMARK   17  A    between atoms: _39  and  _42
REMARK   18  A    between atoms: _42  and  _43
REMARK   19  A    between atoms: _46  and  _48
REMARK   20  A    between atoms: _48  and  _49
REMARK   21  A    between atoms: _48  and  _51
REMARK   22  A    between atoms: _51  and  _52
REMARK   23  A    between atoms: _52  and  _53
REMARK   24  A    between atoms: _53  and  _54
REMARK   25  A    between atoms: _63  and  _65
REMARK   26  A    between atoms: _65  and  _66
REMARK   27  A    between atoms: _65  and  _68
REMARK   28  A    between atoms: _68  and  _69
REMARK   29  A    between atoms: _69  and  _70
REMARK   30  A    between atoms: _70  and  _71
REMARK   31  A    between atoms: _71  and  _72
REMARK   32  A    between atoms: _76  and  _78
REMARK   33  A    between atoms: _78  and  _79
REMARK   34  A    between atoms: _78  and  _81
REMARK   35  A    between atoms: _81  and  _82
REMARK   36  A    between atoms: _87  and  _88
REMARK   37  A    between atoms: _90  and  _92
REMARK   38  A    between atoms: _92  and  _93
REMARK   39  A    between atoms: _92  and  _95
REMARK   40  A    between atoms: _95  and  _96
REMARK   41  A    between atoms: _106  and  _108
REMARK   42  A    between atoms: _108  and  _109
REMARK   43  A    between atoms: _108  and  _111
REMARK   44  A    between atoms: _111  and  _112
REMARK   45  A    between atoms: _112  and  _113
REMARK   46  A    between atoms: _113  and  _114
REMARK   47  A    between atoms: _114  and  _115
REMARK   48  A    between atoms: _119  and  _121
REMARK   49  A    between atoms: _121  and  _122
REMARK   50  A    between atoms: _121  and  _124
REMARK   51  A    between atoms: _124  and  _125
REMARK   52  A    between atoms: _125  and  _126
REMARK   53  A    between atoms: _131  and  _133
REMARK   54  A    between atoms: _133  and  _134
REMARK   55  A    between atoms: _133  and  _136
REMARK   56  A    between atoms: _136  and  _137
REMARK   57  A    between atoms: _139  and  _141
REMARK   58  A    between atoms: _141  and  _142
REMARK   59  A    between atoms: _141  and  _144
REMARK   60  A    between atoms: _144  and  _145
REMARK   61  A    between atoms: _150  and  _151
REMARK   62  A    between atoms: _153  and  _155
REMARK   63  A    between atoms: _155  and  _156
REMARK   64  A    between atoms: _155  and  _158
REMARK   65  A    between atoms: _158  and  _159
REMARK   66  A    between atoms: _164  and  _166
REMARK   67  A    between atoms: _166  and  _167
REMARK   68  A    between atoms: _166  and  _169
REMARK   69  A    between atoms: _169  and  _170
REMARK   70  A    between atoms: _173  and  _175
REMARK   71  A    between atoms: _175  and  _176
REMARK   72  A    between atoms: _175  and  _178
REMARK   73  A    between atoms: _178  and  _179
REMARK   74  A    between atoms: _179  and  _180
REMARK   75  A    between atoms: _180  and  _181
REMARK   76  A    between atoms: _190  and  _192
REMARK   77  A    between atoms: _192  and  _193
REMARK   78  A    between atoms: _192  and  _195
REMARK   79  A    between atoms: _195  and  _196
REMARK   80  A    between atoms: _201  and  _202
REMARK   81  A    between atoms: _204  and  _206
REMARK   82  A    between atoms: _206  and  _207
REMARK   83  A    between atoms: _206  and  _209
REMARK   84  A    between atoms: _209  and  _210
REMARK   85  A    between atoms: _216  and  _218
REMARK   86  A    between atoms: _218  and  _219
REMARK   87  A    between atoms: _218  and  _221
REMARK   88  A    between atoms: _221  and  _222
REMARK   89  A    between atoms: _225  and  _227
REMARK   90  A    between atoms: _227  and  _228
REMARK   91  A    between atoms: _227  and  _230
REMARK   92  A    between atoms: _230  and  _231
REMARK   93  A    between atoms: _231  and  _232
REMARK   94  A    between atoms: _232  and  _233
REMARK   95  A    between atoms: _242  and  _244
REMARK   96  A    between atoms: _244  and  _245
REMARK   97  A    between atoms: _244  and  _247
REMARK   98  A    between atoms: _247  and  _248
REMARK   99  A    between atoms: _253  and  _255
REMARK  100  A    between atoms: _255  and  _256
REMARK  101  A    between atoms: _259  and  _261
REMARK  102  A    between atoms: _261  and  _262
REMARK  103  A    between atoms: _261  and  _264
REMARK  104  A    between atoms: _264  and  _265
REMARK  105  A    between atoms: _270  and  _272
REMARK  106  A    between atoms: _272  and  _273
REMARK  107  A    between atoms: _272  and  _275
REMARK  108  A    between atoms: _275  and  _276
REMARK  109  A    between atoms: _279  and  _281
REMARK  110  A    between atoms: _281  and  _282
REMARK  111  A    between atoms: _281  and  _284
REMARK  112  A    between atoms: _284  and  _285
REMARK  113  A    between atoms: _285  and  _286
REMARK  114  A    between atoms: _286  and  _288
REMARK  115  A    between atoms: _289  and  _291
REMARK  116  A    between atoms: _291  and  _292
REMARK  117  A    between atoms: _291  and  _294
REMARK  118  A    between atoms: _294  and  _295
REMARK  119  A    between atoms: _298  and  _300
REMARK  120  A    between atoms: _300  and  _301
REMARK  121  A    between atoms: _300  and  _303
REMARK  122  A    between atoms: _303  and  _304
REMARK  123  A    between atoms: _309  and  _311
REMARK  124  A    between atoms: _311  and  _312
REMARK  125  A    between atoms: _311  and  _314
REMARK  126  A    between atoms: _314  and  _315
REMARK  127  A    between atoms: _318  and  _320
REMARK  128  A    between atoms: _320  and  _321
REMARK  129  A    between atoms: _323  and  _325
REMARK  130  A    between atoms: _325  and  _326
REMARK  131  A    between atoms: _325  and  _328
REMARK  132  A    between atoms: _328  and  _329
REMARK  133  A    between atoms: _334  and  _335
REMARK  134  A    between atoms: _337  and  _339
REMARK  135  A    between atoms: _339  and  _340
REMARK  136  A    between atoms: _339  and  _342
REMARK  137  A    between atoms: _342  and  _343
REMARK  138  A    between atoms: _348  and  _349
REMARK  139  A    between atoms: _351  and  _353
REMARK  140  A    between atoms: _353  and  _354
REMARK  141  A    between atoms: _353  and  _356
REMARK  142  A    between atoms: _356  and  _357
REMARK  143  A    between atoms: _357  and  _358
REMARK  144  A    between atoms: _361  and  _363
REMARK  145  A    between atoms: _363  and  _364
REMARK  146  A    between atoms: _363  and  _366
REMARK  147  A    between atoms: _366  and  _367
REMARK  148  A    between atoms: _367  and  _368
REMARK  149  A    between atoms: _368  and  _369
REMARK  150  A    between atoms: _378  and  _380
REMARK  151  A    between atoms: _380  and  _381
REMARK  152  A    between atoms: _380  and  _383
REMARK  153  A    between atoms: _383  and  _384
REMARK                            x       y       z     vdW  Elec       q    Type
REMARK                         _______ _______ _______ _____ _____    ______ ____
ROOT
ATOM      1  O   HOH     1      28.899  -8.184   1.086  0.00  0.00    +0.000 OA
ENDROOT
TORSDOF 0
REMARK  Name = ../refined-set-2016/3bpc/3bpc_pocket.pdb
REMARK  153 active torsions:
REMARK  status: ('A' for Active; 'I' for Inactive)
REMARK    1  A    between atoms: _1  and  _3
REMARK    2  A    between atoms: _3  and  _4
REMARK    3  A    between atoms: _3  and  _6
REMARK    4  A    between atoms: _6  and  _7
REMARK    5  A    between atoms: _12  and  _14
REMARK    6  A    between atoms: _14  and  _15
REMARK    7  A    between atoms: _14  and  _17
REMARK    8  A    between atoms: _17  and  _18
REMARK    9  A    between atoms: _20  and  _22
REMARK   10  A    between atoms: _22  and  _23
REMARK   11  A    between atoms: _22  and  _25
REMARK   12  A    between atoms: _25  and  _26
REMARK   13  A    between atoms: _26  and  _27
REMARK   14  A    between atoms: _27  and  _28
REMARK   15  A    between atoms: _37  and  _39
REMARK   16  A    between atoms: _39  and  _40
REMARK   17  A    between atoms: _39  and  _42
REMARK   18  A    between atoms: _42  and  _43
REMARK   19  A    between atoms: _46  and  _48
REMARK   20  A    between atoms: _48  and  _49
REMARK   21  A    between atoms: _48  and  _51
REMARK   22  A    between atoms: _51  and  _52
REMARK   23  A    between atoms: _52  and  _53
REMARK   24  A    between atoms: _53  and  _54
REMARK   25  A    between atoms: _63  and  _65
REMARK   26  A    between atoms: _65  and  _66
REMARK   27  A    between atoms: _65  and  _68
REMARK   28  A    between atoms: _68  and  _69
REMARK   29  A    between atoms: _69  and  _70
REMARK   30  A    between atoms: _70  and  _71
REMARK   31  A    between atoms: _71  and  _72
REMARK   32  A    between atoms: _76  and  _78
REMARK   33  A    between atoms: _78  and  _79
REMARK   34  A    between atoms: _78  and  _81
REMARK   35  A    between atoms: _81  and  _82
REMARK   36  A    between atoms: _87  and  _88
REMARK   37  A    between atoms: _90  and  _92
REMARK   38  A    between atoms: _92  and  _93
REMARK   39  A    between atoms: _92  and  _95
REMARK   40  A    between atoms: _95  and  _96
REMARK   41  A    between atoms: _106  and  _108
REMARK   42  A    between atoms: _108  and  _109
REMARK   43  A    between atoms: _108  and  _111
REMARK   44  A    between atoms: _111  and  _112
REMARK   45  A    between atoms: _112  and  _113
REMARK   46  A    between atoms: _113  and  _114
REMARK   47  A    between atoms: _114  and  _115
REMARK   48  A    between atoms: _119  and  _121
REMARK   49  A    between atoms: _121  and  _122
REMARK   50  A    between atoms: _121  and  _124
REMARK   51  A    between atoms: _124  and  _125
REMARK   52  A    between atoms: _125  and  _126
REMARK   53  A    between atoms: _131  and  _133
REMARK   54  A    between atoms: _133  and  _134
REMARK   55  A    between atoms: _133  and  _136
REMARK   56  A    between atoms: _136  and  _137
REMARK   57  A    between atoms: _139  and  _141
REMARK   58  A    between atoms: _141  and  _142
REMARK   59  A    between atoms: _141  and  _144
REMARK   60  A    between atoms: _144  and  _145
REMARK   61  A    between atoms: _150  and  _151
REMARK   62  A    between atoms: _153  and  _155
REMARK   63  A    between atoms: _155  and  _156
REMARK   64  A    between atoms: _155  and  _158
REMARK   65  A    between atoms: _158  and  _159
REMARK   66  A    between atoms: _164  and  _166
REMARK   67  A    between atoms: _166  and  _167
REMARK   68  A    between atoms: _166  and  _169
REMARK   69  A    between atoms: _169  and  _170
REMARK   70  A    between atoms: _173  and  _175
REMARK   71  A    between atoms: _175  and  _176
REMARK   72  A    between atoms: _175  and  _178
REMARK   73  A    between atoms: _178  and  _179
REMARK   74  A    between atoms: _179  and  _180
REMARK   75  A    between atoms: _180  and  _181
REMARK   76  A    between atoms: _190  and  _192
REMARK   77  A    between atoms: _192  and  _193
REMARK   78  A    between atoms: _192  and  _195
REMARK   79  A    between atoms: _195  and  _196
REMARK   80  A    between atoms: _201  and  _202
REMARK   81  A    between atoms: _204  and  _206
REMARK   82  A    between atoms: _206  and  _207
REMARK   83  A    between atoms: _206  and  _209
REMARK   84  A    between atoms: _209  and  _210
REMARK   85  A    between atoms: _216  and  _218
REMARK   86  A    between atoms: _218  and  _219
REMARK   87  A    between atoms: _218  and  _221
REMARK   88  A    between atoms: _221  and  _222
REMARK   89  A    between atoms: _225  and  _227
REMARK   90  A    between atoms: _227  and  _228
REMARK   91  A    between atoms: _227  and  _230
REMARK   92  A    between atoms: _230  and  _231
REMARK   93  A    between atoms: _231  and  _232
REMARK   94  A    between atoms: _232  and  _233
REMARK   95  A    between atoms: _242  and  _244
REMARK   96  A    between atoms: _244  and  _245
REMARK   97  A    between atoms: _244  and  _247
REMARK   98  A    between atoms: _247  and  _248
REMARK   99  A    between atoms: _253  and  _255
REMARK  100  A    between atoms: _255  and  _256
REMARK  101  A    between atoms: _259  and  _261
REMARK  102  A    between atoms: _261  and  _262
REMARK  103  A    between atoms: _261  and  _264
REMARK  104  A    between atoms: _264  and  _265
REMARK  105  A    between atoms: _270  and  _272
REMARK  106  A    between atoms: _272  and  _273
REMARK  107  A    between atoms: _272  and  _275
REMARK  108  A    between atoms: _275  and  _276
REMARK  109  A    between atoms: _279  and  _281
REMARK  110  A    between atoms: _281  and  _282
REMARK  111  A    between atoms: _281  and  _284
REMARK  112  A    between atoms: _284  and  _285
REMARK  113  A    between atoms: _285  and  _286
REMARK  114  A    between atoms: _286  and  _288
REMARK  115  A    between atoms: _289  and  _291
REMARK  116  A    between atoms: _291  and  _292
REMARK  117  A    between atoms: _291  and  _294
REMARK  118  A    between atoms: _294  and  _295
REMARK  119  A    between atoms: _298  and  _300
REMARK  120  A    between atoms: _300  and  _301
REMARK  121  A    between atoms: _300  and  _303
REMARK  122  A    between atoms: _303  and  _304
REMARK  123  A    between atoms: _309  and  _311
REMARK  124  A    between atoms: _311  and  _312
REMARK  125  A    between atoms: _311  and  _314
REMARK  126  A    between atoms: _314  and  _315
REMARK  127  A    between atoms: _318  and  _320
REMARK  128  A    between atoms: _320  and  _321
REMARK  129  A    between atoms: _323  and  _325
REMARK  130  A    between atoms: _325  and  _326
REMARK  131  A    between atoms: _325  and  _328
REMARK  132  A    between atoms: _328  and  _329
REMARK  133  A    between atoms: _334  and  _335
REMARK  134  A    between atoms: _337  and  _339
REMARK  135  A    between atoms: _339  and  _340
REMARK  136  A    between atoms: _339  and  _342
REMARK  137  A    between atoms: _342  and  _343
REMARK  138  A    between atoms: _348  and  _349
REMARK  139  A    between atoms: _351  and  _353
REMARK  140  A    between atoms: _353  and  _354
REMARK  141  A    between atoms: _353  and  _356
REMARK  142  A    between atoms: _356  and  _357
REMARK  143  A    between atoms: _357  and  _358
REMARK  144  A    between atoms: _361  and  _363
REMARK  145  A    between atoms: _363  and  _364
REMARK  146  A    between atoms: _363  and  _366
REMARK  147  A    between atoms: _366  and  _367
REMARK  148  A    between atoms: _367  and  _368
REMARK  149  A    between atoms: _368  and  _369
REMARK  150  A    between atoms: _378  and  _380
REMARK  151  A    between atoms: _380  and  _381
REMARK  152  A    between atoms: _380  and  _383
REMARK  153  A    between atoms: _383  and  _384
REMARK                            x       y       z     vdW  Elec       q    Type
REMARK                         _______ _______ _______ _____ _____    ______ ____
ROOT
ATOM      1  O   HOH     1      34.657   5.191   3.006  0.00  0.00    +0.000 OA
ENDROOT
TORSDOF 0
REMARK  Name = ../refined-set-2016/3bpc/3bpc_pocket.pdb
REMARK  153 active torsions:
REMARK  status: ('A' for Active; 'I' for Inactive)
REMARK    1  A    between atoms: _1  and  _3
REMARK    2  A    between atoms: _3  and  _4
REMARK    3  A    between atoms: _3  and  _6
REMARK    4  A    between atoms: _6  and  _7
REMARK    5  A    between atoms: _12  and  _14
REMARK    6  A    between atoms: _14  and  _15
REMARK    7  A    between atoms: _14  and  _17
REMARK    8  A    between atoms: _17  and  _18
REMARK    9  A    between atoms: _20  and  _22
REMARK   10  A    between atoms: _22  and  _23
REMARK   11  A    between atoms: _22  and  _25
REMARK   12  A    between atoms: _25  and  _26
REMARK   13  A    between atoms: _26  and  _27
REMARK   14  A    between atoms: _27  and  _28
REMARK   15  A    between atoms: _37  and  _39
REMARK   16  A    between atoms: _39  and  _40
REMARK   17  A    between atoms: _39  and  _42
REMARK   18  A    between atoms: _42  and  _43
REMARK   19  A    between atoms: _46  and  _48
REMARK   20  A    between atoms: _48  and  _49
REMARK   21  A    between atoms: _48  and  _51
REMARK   22  A    between atoms: _51  and  _52
REMARK   23  A    between atoms: _52  and  _53
REMARK   24  A    between atoms: _53  and  _54
REMARK   25  A    between atoms: _63  and  _65
REMARK   26  A    between atoms: _65  and  _66
REMARK   27  A    between atoms: _65  and  _68
REMARK   28  A    between atoms: _68  and  _69
REMARK   29  A    between atoms: _69  and  _70
REMARK   30  A    between atoms: _70  and  _71
REMARK   31  A    between atoms: _71  and  _72
REMARK   32  A    between atoms: _76  and  _78
REMARK   33  A    between atoms: _78  and  _79
REMARK   34  A    between atoms: _78  and  _81
REMARK   35  A    between atoms: _81  and  _82
REMARK   36  A    between atoms: _87  and  _88
REMARK   37  A    between atoms: _90  and  _92
REMARK   38  A    between atoms: _92  and  _93
REMARK   39  A    between atoms: _92  and  _95
REMARK   40  A    between atoms: _95  and  _96
REMARK   41  A    between atoms: _106  and  _108
REMARK   42  A    between atoms: _108  and  _109
REMARK   43  A    between atoms: _108  and  _111
REMARK   44  A    between atoms: _111  and  _112
REMARK   45  A    between atoms: _112  and  _113
REMARK   46  A    between atoms: _113  and  _114
REMARK   47  A    between atoms: _114  and  _115
REMARK   48  A    between atoms: _119  and  _121
REMARK   49  A    between atoms: _121  and  _122
REMARK   50  A    between atoms: _121  and  _124
REMARK   51  A    between atoms: _124  and  _125
REMARK   52  A    between atoms: _125  and  _126
REMARK   53  A    between atoms: _131  and  _133
REMARK   54  A    between atoms: _133  and  _134
REMARK   55  A    between atoms: _133  and  _136
REMARK   56  A    between atoms: _136  and  _137
REMARK   57  A    between atoms: _139  and  _141
REMARK   58  A    between atoms: _141  and  _142
REMARK   59  A    between atoms: _141  and  _144
REMARK   60  A    between atoms: _144  and  _145
REMARK   61  A    between atoms: _150  and  _151
REMARK   62  A    between atoms: _153  and  _155
REMARK   63  A    between atoms: _155  and  _156
REMARK   64  A    between atoms: _155  and  _158
REMARK   65  A    between atoms: _158  and  _159
REMARK   66  A    between atoms: _164  and  _166
REMARK   67  A    between atoms: _166  and  _167
REMARK   68  A    between atoms: _166  and  _169
REMARK   69  A    between atoms: _169  and  _170
REMARK   70  A    between atoms: _173  and  _175
REMARK   71  A    between atoms: _175  and  _176
REMARK   72  A    between atoms: _175  and  _178
REMARK   73  A    between atoms: _178  and  _179
REMARK   74  A    between atoms: _179  and  _180
REMARK   75  A    between atoms: _180  and  _181
REMARK   76  A    between atoms: _190  and  _192
REMARK   77  A    between atoms: _192  and  _193
REMARK   78  A    between atoms: _192  and  _195
REMARK   79  A    between atoms: _195  and  _196
REMARK   80  A    between atoms: _201  and  _202
REMARK   81  A    between atoms: _204  and  _206
REMARK   82  A    between atoms: _206  and  _207
REMARK   83  A    between atoms: _206  and  _209
REMARK   84  A    between atoms: _209  and  _210
REMARK   85  A    between atoms: _216  and  _218
REMARK   86  A    between atoms: _218  and  _219
REMARK   87  A    between atoms: _218  and  _221
REMARK   88  A    between atoms: _221  and  _222
REMARK   89  A    between atoms: _225  and  _227
REMARK   90  A    between atoms: _227  and  _228
REMARK   91  A    between atoms: _227  and  _230
REMARK   92  A    between atoms: _230  and  _231
REMARK   93  A    between atoms: _231  and  _232
REMARK   94  A    between atoms: _232  and  _233
REMARK   95  A    between atoms: _242  and  _244
REMARK   96  A    between atoms: _244  and  _245
REMARK   97  A    between atoms: _244  and  _247
REMARK   98  A    between atoms: _247  and  _248
REMARK   99  A    between atoms: _253  and  _255
REMARK  100  A    between atoms: _255  and  _256
REMARK  101  A    between atoms: _259  and  _261
REMARK  102  A    between atoms: _261  and  _262
REMARK  103  A    between atoms: _261  and  _264
REMARK  104  A    between atoms: _264  and  _265
REMARK  105  A    between atoms: _270  and  _272
REMARK  106  A    between atoms: _272  and  _273
REMARK  107  A    between atoms: _272  and  _275
REMARK  108  A    between atoms: _275  and  _276
REMARK  109  A    between atoms: _279  and  _281
REMARK  110  A    between atoms: _281  and  _282
REMARK  111  A    between atoms: _281  and  _284
REMARK  112  A    between atoms: _284  and  _285
REMARK  113  A    between atoms: _285  and  _286
REMARK  114  A    between atoms: _286  and  _288
REMARK  115  A    between atoms: _289  and  _291
REMARK  116  A    between atoms: _291  and  _292
REMARK  117  A    between atoms: _291  and  _294
REMARK  118  A    between atoms: _294  and  _295
REMARK  119  A    between atoms: _298  and  _300
REMARK  120  A    between atoms: _300  and  _301
REMARK  121  A    between atoms: _300  and  _303
REMARK  122  A    between atoms: _303  and  _304
REMARK  123  A    between atoms: _309  and  _311
REMARK  124  A    between atoms: _311  and  _312
REMARK  125  A    between atoms: _311  and  _314
REMARK  126  A    between atoms: _314  and  _315
REMARK  127  A    between atoms: _318  and  _320
REMARK  128  A    between atoms: _320  and  _321
REMARK  129  A    between atoms: _323  and  _325
REMARK  130  A    between atoms: _325  and  _326
REMARK  131  A    between atoms: _325  and  _328
REMARK  132  A    between atoms: _328  and  _329
REMARK  133  A    between atoms: _334  and  _335
REMARK  134  A    between atoms: _337  and  _339
REMARK  135  A    between atoms: _339  and  _340
REMARK  136  A    between atoms: _339  and  _342
REMARK  137  A    between atoms: _342  and  _343
REMARK  138  A    between atoms: _348  and  _349
REMARK  139  A    between atoms: _351  and  _353
REMARK  140  A    between atoms: _353  and  _354
REMARK  141  A    between atoms: _353  and  _356
REMARK  142  A    between atoms: _356  and  _357
REMARK  143  A    between atoms: _357  and  _358
REMARK  144  A    between atoms: _361  and  _363
REMARK  145  A    between atoms: _363  and  _364
REMARK  146  A    between atoms: _363  and  _366
REMARK  147  A    between atoms: _366  and  _367
REMARK  148  A    between atoms: _367  and  _368
REMARK  149  A    between atoms: _368  and  _369
REMARK  150  A    between atoms: _378  and  _380
REMARK  151  A    between atoms: _380  and  _381
REMARK  152  A    between atoms: _380  and  _383
REMARK  153  A    between atoms: _383  and  _384
REMARK                            x       y       z     vdW  Elec       q    Type
REMARK                         _______ _______ _______ _____ _____    ______ ____
ROOT
ATOM      1  O   HOH     1      23.756  -1.205  -4.656  0.00  0.00    +0.000 OA
ENDROOT
TORSDOF 0
REMARK  Name = ../refined-set-2016/3bpc/3bpc_pocket.pdb
REMARK  153 active torsions:
REMARK  status: ('A' for Active; 'I' for Inactive)
REMARK    1  A    between atoms: _1  and  _3
REMARK    2  A    between atoms: _3  and  _4
REMARK    3  A    between atoms: _3  and  _6
REMARK    4  A    between atoms: _6  and  _7
REMARK    5  A    between atoms: _12  and  _14
REMARK    6  A    between atoms: _14  and  _15
REMARK    7  A    between atoms: _14  and  _17
REMARK    8  A    between atoms: _17  and  _18
REMARK    9  A    between atoms: _20  and  _22
REMARK   10  A    between atoms: _22  and  _23
REMARK   11  A    between atoms: _22  and  _25
REMARK   12  A    between atoms: _25  and  _26
REMARK   13  A    between atoms: _26  and  _27
REMARK   14  A    between atoms: _27  and  _28
REMARK   15  A    between atoms: _37  and  _39
REMARK   16  A    between atoms: _39  and  _40
REMARK   17  A    between atoms: _39  and  _42
REMARK   18  A    between atoms: _42  and  _43
REMARK   19  A    between atoms: _46  and  _48
REMARK   20  A    between atoms: _48  and  _49
REMARK   21  A    between atoms: _48  and  _51
REMARK   22  A    between atoms: _51  and  _52
REMARK   23  A    between atoms: _52  and  _53
REMARK   24  A    between atoms: _53  and  _54
REMARK   25  A    between atoms: _63  and  _65
REMARK   26  A    between atoms: _65  and  _66
REMARK   27  A    between atoms: _65  and  _68
REMARK   28  A    between atoms: _68  and  _69
REMARK   29  A    between atoms: _69  and  _70
REMARK   30  A    between atoms: _70  and  _71
REMARK   31  A    between atoms: _71  and  _72
REMARK   32  A    between atoms: _76  and  _78
REMARK   33  A    between atoms: _78  and  _79
REMARK   34  A    between atoms: _78  and  _81
REMARK   35  A    between atoms: _81  and  _82
REMARK   36  A    between atoms: _87  and  _88
REMARK   37  A    between atoms: _90  and  _92
REMARK   38  A    between atoms: _92  and  _93
REMARK   39  A    between atoms: _92  and  _95
REMARK   40  A    between atoms: _95  and  _96
REMARK   41  A    between atoms: _106  and  _108
REMARK   42  A    between atoms: _108  and  _109
REMARK   43  A    between atoms: _108  and  _111
REMARK   44  A    between atoms: _111  and  _112
REMARK   45  A    between atoms: _112  and  _113
REMARK   46  A    between atoms: _113  and  _114
REMARK   47  A    between atoms: _114  and  _115
REMARK   48  A    between atoms: _119  and  _121
REMARK   49  A    between atoms: _121  and  _122
REMARK   50  A    between atoms: _121  and  _124
REMARK   51  A    between atoms: _124  and  _125
REMARK   52  A    between atoms: _125  and  _126
REMARK   53  A    between atoms: _131  and  _133
REMARK   54  A    between atoms: _133  and  _134
REMARK   55  A    between atoms: _133  and  _136
REMARK   56  A    between atoms: _136  and  _137
REMARK   57  A    between atoms: _139  and  _141
REMARK   58  A    between atoms: _141  and  _142
REMARK   59  A    between atoms: _141  and  _144
REMARK   60  A    between atoms: _144  and  _145
REMARK   61  A    between atoms: _150  and  _151
REMARK   62  A    between atoms: _153  and  _155
REMARK   63  A    between atoms: _155  and  _156
REMARK   64  A    between atoms: _155  and  _158
REMARK   65  A    between atoms: _158  and  _159
REMARK   66  A    between atoms: _164  and  _166
REMARK   67  A    between atoms: _166  and  _167
REMARK   68  A    between atoms: _166  and  _169
REMARK   69  A    between atoms: _169  and  _170
REMARK   70  A    between atoms: _173  and  _175
REMARK   71  A    between atoms: _175  and  _176
REMARK   72  A    between atoms: _175  and  _178
REMARK   73  A    between atoms: _178  and  _179
REMARK   74  A    between atoms: _179  and  _180
REMARK   75  A    between atoms: _180  and  _181
REMARK   76  A    between atoms: _190  and  _192
REMARK   77  A    between atoms: _192  and  _193
REMARK   78  A    between atoms: _192  and  _195
REMARK   79  A    between atoms: _195  and  _196
REMARK   80  A    between atoms: _201  and  _202
REMARK   81  A    between atoms: _204  and  _206
REMARK   82  A    between atoms: _206  and  _207
REMARK   83  A    between atoms: _206  and  _209
REMARK   84  A    between atoms: _209  and  _210
REMARK   85  A    between atoms: _216  and  _218
REMARK   86  A    between atoms: _218  and  _219
REMARK   87  A    between atoms: _218  and  _221
REMARK   88  A    between atoms: _221  and  _222
REMARK   89  A    between atoms: _225  and  _227
REMARK   90  A    between atoms: _227  and  _228
REMARK   91  A    between atoms: _227  and  _230
REMARK   92  A    between atoms: _230  and  _231
REMARK   93  A    between atoms: _231  and  _232
REMARK   94  A    between atoms: _232  and  _233
REMARK   95  A    between atoms: _242  and  _244
REMARK   96  A    between atoms: _244  and  _245
REMARK   97  A    between atoms: _244  and  _247
REMARK   98  A    between atoms: _247  and  _248
REMARK   99  A    between atoms: _253  and  _255
REMARK  100  A    between atoms: _255  and  _256
REMARK  101  A    between atoms: _259  and  _261
REMARK  102  A    between atoms: _261  and  _262
REMARK  103  A    between atoms: _261  and  _264
REMARK  104  A    between atoms: _264  and  _265
REMARK  105  A    between atoms: _270  and  _272
REMARK  106  A    between atoms: _272  and  _273
REMARK  107  A    between atoms: _272  and  _275
REMARK  108  A    between atoms: _275  and  _276
REMARK  109  A    between atoms: _279  and  _281
REMARK  110  A    between atoms: _281  and  _282
REMARK  111  A    between atoms: _281  and  _284
REMARK  112  A    between atoms: _284  and  _285
REMARK  113  A    between atoms: _285  and  _286
REMARK  114  A    between atoms: _286  and  _288
REMARK  115  A    between atoms: _289  and  _291
REMARK  116  A    between atoms: _291  and  _292
REMARK  117  A    between atoms: _291  and  _294
REMARK  118  A    between atoms: _294  and  _295
REMARK  119  A    between atoms: _298  and  _300
REMARK  120  A    between atoms: _300  and  _301
REMARK  121  A    between atoms: _300  and  _303
REMARK  122  A    between atoms: _303  and  _304
REMARK  123  A    between atoms: _309  and  _311
REMARK  124  A    between atoms: _311  and  _312
REMARK  125  A    between atoms: _311  and  _314
REMARK  126  A    between atoms: _314  and  _315
REMARK  127  A    between atoms: _318  and  _320
REMARK  128  A    between atoms: _320  and  _321
REMARK  129  A    between atoms: _323  and  _325
REMARK  130  A    between atoms: _325  and  _326
REMARK  131  A    between atoms: _325  and  _328
REMARK  132  A    between atoms: _328  and  _329
REMARK  133  A    between atoms: _334  and  _335
REMARK  134  A    between atoms: _337  and  _339
REMARK  135  A    between atoms: _339  and  _340
REMARK  136  A    between atoms: _339  and  _342
REMARK  137  A    between atoms: _342  and  _343
REMARK  138  A    between atoms: _348  and  _349
REMARK  139  A    between atoms: _351  and  _353
REMARK  140  A    between atoms: _353  and  _354
REMARK  141  A    between atoms: _353  and  _356
REMARK  142  A    between atoms: _356  and  _357
REMARK  143  A    between atoms: _357  and  _358
REMARK  144  A    between atoms: _361  and  _363
REMARK  145  A    between atoms: _363  and  _364
REMARK  146  A    between atoms: _363  and  _366
REMARK  147  A    between atoms: _366  and  _367
REMARK  148  A    between atoms: _367  and  _368
REMARK  149  A    between atoms: _368  and  _369
REMARK  150  A    between atoms: _378  and  _380
REMARK  151  A    between atoms: _380  and  _381
REMARK  152  A    between atoms: _380  and  _383
REMARK  153  A    between atoms: _383  and  _384
REMARK                            x       y       z     vdW  Elec       q    Type
REMARK                         _______ _______ _______ _____ _____    ______ ____
ROOT
ATOM      1  O   HOH     1      32.848  -3.936   1.154  0.00  0.00    +0.000 OA
ENDROOT
TORSDOF 0
REMARK  Name = ../refined-set-2016/3bpc/3bpc_pocket.pdb
REMARK  153 active torsions:
REMARK  status: ('A' for Active; 'I' for Inactive)
REMARK    1  A    between atoms: _1  and  _3
REMARK    2  A    between atoms: _3  and  _4
REMARK    3  A    between atoms: _3  and  _6
REMARK    4  A    between atoms: _6  and  _7
REMARK    5  A    between atoms: _12  and  _14
REMARK    6  A    between atoms: _14  and  _15
REMARK    7  A    between atoms: _14  and  _17
REMARK    8  A    between atoms: _17  and  _18
REMARK    9  A    between atoms: _20  and  _22
REMARK   10  A    between atoms: _22  and  _23
REMARK   11  A    between atoms: _22  and  _25
REMARK   12  A    between atoms: _25  and  _26
REMARK   13  A    between atoms: _26  and  _27
REMARK   14  A    between atoms: _27  and  _28
REMARK   15  A    between atoms: _37  and  _39
REMARK   16  A    between atoms: _39  and  _40
REMARK   17  A    between atoms: _39  and  _42
REMARK   18  A    between atoms: _42  and  _43
REMARK   19  A    between atoms: _46  and  _48
REMARK   20  A    between atoms: _48  and  _49
REMARK   21  A    between atoms: _48  and  _51
REMARK   22  A    between atoms: _51  and  _52
REMARK   23  A    between atoms: _52  and  _53
REMARK   24  A    between atoms: _53  and  _54
REMARK   25  A    between atoms: _63  and  _65
REMARK   26  A    between atoms: _65  and  _66
REMARK   27  A    between atoms: _65  and  _68
REMARK   28  A    between atoms: _68  and  _69
REMARK   29  A    between atoms: _69  and  _70
REMARK   30  A    between atoms: _70  and  _71
REMARK   31  A    between atoms: _71  and  _72
REMARK   32  A    between atoms: _76  and  _78
REMARK   33  A    between atoms: _78  and  _79
REMARK   34  A    between atoms: _78  and  _81
REMARK   35  A    between atoms: _81  and  _82
REMARK   36  A    between atoms: _87  and  _88
REMARK   37  A    between atoms: _90  and  _92
REMARK   38  A    between atoms: _92  and  _93
REMARK   39  A    between atoms: _92  and  _95
REMARK   40  A    between atoms: _95  and  _96
REMARK   41  A    between atoms: _106  and  _108
REMARK   42  A    between atoms: _108  and  _109
REMARK   43  A    between atoms: _108  and  _111
REMARK   44  A    between atoms: _111  and  _112
REMARK   45  A    between atoms: _112  and  _113
REMARK   46  A    between atoms: _113  and  _114
REMARK   47  A    between atoms: _114  and  _115
REMARK   48  A    between atoms: _119  and  _121
REMARK   49  A    between atoms: _121  and  _122
REMARK   50  A    between atoms: _121  and  _124
REMARK   51  A    between atoms: _124  and  _125
REMARK   52  A    between atoms: _125  and  _126
REMARK   53  A    between atoms: _131  and  _133
REMARK   54  A    between atoms: _133  and  _134
REMARK   55  A    between atoms: _133  and  _136
REMARK   56  A    between atoms: _136  and  _137
REMARK   57  A    between atoms: _139  and  _141
REMARK   58  A    between atoms: _141  and  _142
REMARK   59  A    between atoms: _141  and  _144
REMARK   60  A    between atoms: _144  and  _145
REMARK   61  A    between atoms: _150  and  _151
REMARK   62  A    between atoms: _153  and  _155
REMARK   63  A    between atoms: _155  and  _156
REMARK   64  A    between atoms: _155  and  _158
REMARK   65  A    between atoms: _158  and  _159
REMARK   66  A    between atoms: _164  and  _166
REMARK   67  A    between atoms: _166  and  _167
REMARK   68  A    between atoms: _166  and  _169
REMARK   69  A    between atoms: _169  and  _170
REMARK   70  A    between atoms: _173  and  _175
REMARK   71  A    between atoms: _175  and  _176
REMARK   72  A    between atoms: _175  and  _178
REMARK   73  A    between atoms: _178  and  _179
REMARK   74  A    between atoms: _179  and  _180
REMARK   75  A    between atoms: _180  and  _181
REMARK   76  A    between atoms: _190  and  _192
REMARK   77  A    between atoms: _192  and  _193
REMARK   78  A    between atoms: _192  and  _195
REMARK   79  A    between atoms: _195  and  _196
REMARK   80  A    between atoms: _201  and  _202
REMARK   81  A    between atoms: _204  and  _206
REMARK   82  A    between atoms: _206  and  _207
REMARK   83  A    between atoms: _206  and  _209
REMARK   84  A    between atoms: _209  and  _210
REMARK   85  A    between atoms: _216  and  _218
REMARK   86  A    between atoms: _218  and  _219
REMARK   87  A    between atoms: _218  and  _221
REMARK   88  A    between atoms: _221  and  _222
REMARK   89  A    between atoms: _225  and  _227
REMARK   90  A    between atoms: _227  and  _228
REMARK   91  A    between atoms: _227  and  _230
REMARK   92  A    between atoms: _230  and  _231
REMARK   93  A    between atoms: _231  and  _232
REMARK   94  A    between atoms: _232  and  _233
REMARK   95  A    between atoms: _242  and  _244
REMARK   96  A    between atoms: _244  and  _245
REMARK   97  A    between atoms: _244  and  _247
REMARK   98  A    between atoms: _247  and  _248
REMARK   99  A    between atoms: _253  and  _255
REMARK  100  A    between atoms: _255  and  _256
REMARK  101  A    between atoms: _259  and  _261
REMARK  102  A    between atoms: _261  and  _262
REMARK  103  A    between atoms: _261  and  _264
REMARK  104  A    between atoms: _264  and  _265
REMARK  105  A    between atoms: _270  and  _272
REMARK  106  A    between atoms: _272  and  _273
REMARK  107  A    between atoms: _272  and  _275
REMARK  108  A    between atoms: _275  and  _276
REMARK  109  A    between atoms: _279  and  _281
REMARK  110  A    between atoms: _281  and  _282
REMARK  111  A    between atoms: _281  and  _284
REMARK  112  A    between atoms: _284  and  _285
REMARK  113  A    between atoms: _285  and  _286
REMARK  114  A    between atoms: _286  and  _288
REMARK  115  A    between atoms: _289  and  _291
REMARK  116  A    between atoms: _291  and  _292
REMARK  117  A    between atoms: _291  and  _294
REMARK  118  A    between atoms: _294  and  _295
REMARK  119  A    between atoms: _298  and  _300
REMARK  120  A    between atoms: _300  and  _301
REMARK  121  A    between atoms: _300  and  _303
REMARK  122  A    between atoms: _303  and  _304
REMARK  123  A    between atoms: _309  and  _311
REMARK  124  A    between atoms: _311  and  _312
REMARK  125  A    between atoms: _311  and  _314
REMARK  126  A    between atoms: _314  and  _315
REMARK  127  A    between atoms: _318  and  _320
REMARK  128  A    between atoms: _320  and  _321
REMARK  129  A    between atoms: _323  and  _325
REMARK  130  A    between atoms: _325  and  _326
REMARK  131  A    between atoms: _325  and  _328
REMARK  132  A    between atoms: _328  and  _329
REMARK  133  A    between atoms: _334  and  _335
REMARK  134  A    between atoms: _337  and  _339
REMARK  135  A    between atoms: _339  and  _340
REMARK  136  A    between atoms: _339  and  _342
REMARK  137  A    between atoms: _342  and  _343
REMARK  138  A    between atoms: _348  and  _349
REMARK  139  A    between atoms: _351  and  _353
REMARK  140  A    between atoms: _353  and  _354
REMARK  141  A    between atoms: _353  and  _356
REMARK  142  A    between atoms: _356  and  _357
REMARK  143  A    between atoms: _357  and  _358
REMARK  144  A    between atoms: _361  and  _363
REMARK  145  A    between atoms: _363  and  _364
REMARK  146  A    between atoms: _363  and  _366
REMARK  147  A    between atoms: _366  and  _367
REMARK  148  A    between atoms: _367  and  _368
REMARK  149  A    between atoms: _368  and  _369
REMARK  150  A    between atoms: _378  and  _380
REMARK  151  A    between atoms: _380  and  _381
REMARK  152  A    between atoms: _380  and  _383
REMARK  153  A    between atoms: _383  and  _384
REMARK                            x       y       z     vdW  Elec       q    Type
REMARK                         _______ _______ _______ _____ _____    ______ ____
ROOT
ATOM      1  O   HOH     1      20.566   1.035  -4.184  0.00  0.00    +0.000 OA
ENDROOT
TORSDOF 0
REMARK  Name = ../refined-set-2016/3bpc/3bpc_pocket.pdb
REMARK  153 active torsions:
REMARK  status: ('A' for Active; 'I' for Inactive)
REMARK    1  A    between atoms: _1  and  _3
REMARK    2  A    between atoms: _3  and  _4
REMARK    3  A    between atoms: _3  and  _6
REMARK    4  A    between atoms: _6  and  _7
REMARK    5  A    between atoms: _12  and  _14
REMARK    6  A    between atoms: _14  and  _15
REMARK    7  A    between atoms: _14  and  _17
REMARK    8  A    between atoms: _17  and  _18
REMARK    9  A    between atoms: _20  and  _22
REMARK   10  A    between atoms: _22  and  _23
REMARK   11  A    between atoms: _22  and  _25
REMARK   12  A    between atoms: _25  and  _26
REMARK   13  A    between atoms: _26  and  _27
REMARK   14  A    between atoms: _27  and  _28
REMARK   15  A    between atoms: _37  and  _39
REMARK   16  A    between atoms: _39  and  _40
REMARK   17  A    between atoms: _39  and  _42
REMARK   18  A    between atoms: _42  and  _43
REMARK   19  A    between atoms: _46  and  _48
REMARK   20  A    between atoms: _48  and  _49
REMARK   21  A    between atoms: _48  and  _51
REMARK   22  A    between atoms: _51  and  _52
REMARK   23  A    between atoms: _52  and  _53
REMARK   24  A    between atoms: _53  and  _54
REMARK   25  A    between atoms: _63  and  _65
REMARK   26  A    between atoms: _65  and  _66
REMARK   27  A    between atoms: _65  and  _68
REMARK   28  A    between atoms: _68  and  _69
REMARK   29  A    between atoms: _69  and  _70
REMARK   30  A    between atoms: _70  and  _71
REMARK   31  A    between atoms: _71  and  _72
REMARK   32  A    between atoms: _76  and  _78
REMARK   33  A    between atoms: _78  and  _79
REMARK   34  A    between atoms: _78  and  _81
REMARK   35  A    between atoms: _81  and  _82
REMARK   36  A    between atoms: _87  and  _88
REMARK   37  A    between atoms: _90  and  _92
REMARK   38  A    between atoms: _92  and  _93
REMARK   39  A    between atoms: _92  and  _95
REMARK   40  A    between atoms: _95  and  _96
REMARK   41  A    between atoms: _106  and  _108
REMARK   42  A    between atoms: _108  and  _109
REMARK   43  A    between atoms: _108  and  _111
REMARK   44  A    between atoms: _111  and  _112
REMARK   45  A    between atoms: _112  and  _113
REMARK   46  A    between atoms: _113  and  _114
REMARK   47  A    between atoms: _114  and  _115
REMARK   48  A    between atoms: _119  and  _121
REMARK   49  A    between atoms: _121  and  _122
REMARK   50  A    between atoms: _121  and  _124
REMARK   51  A    between atoms: _124  and  _125
REMARK   52  A    between atoms: _125  and  _126
REMARK   53  A    between atoms: _131  and  _133
REMARK   54  A    between atoms: _133  and  _134
REMARK   55  A    between atoms: _133  and  _136
REMARK   56  A    between atoms: _136  and  _137
REMARK   57  A    between atoms: _139  and  _141
REMARK   58  A    between atoms: _141  and  _142
REMARK   59  A    between atoms: _141  and  _144
REMARK   60  A    between atoms: _144  and  _145
REMARK   61  A    between atoms: _150  and  _151
REMARK   62  A    between atoms: _153  and  _155
REMARK   63  A    between atoms: _155  and  _156
REMARK   64  A    between atoms: _155  and  _158
REMARK   65  A    between atoms: _158  and  _159
REMARK   66  A    between atoms: _164  and  _166
REMARK   67  A    between atoms: _166  and  _167
REMARK   68  A    between atoms: _166  and  _169
REMARK   69  A    between atoms: _169  and  _170
REMARK   70  A    between atoms: _173  and  _175
REMARK   71  A    between atoms: _175  and  _176
REMARK   72  A    between atoms: _175  and  _178
REMARK   73  A    between atoms: _178  and  _179
REMARK   74  A    between atoms: _179  and  _180
REMARK   75  A    between atoms: _180  and  _181
REMARK   76  A    between atoms: _190  and  _192
REMARK   77  A    between atoms: _192  and  _193
REMARK   78  A    between atoms: _192  and  _195
REMARK   79  A    between atoms: _195  and  _196
REMARK   80  A    between atoms: _201  and  _202
REMARK   81  A    between atoms: _204  and  _206
REMARK   82  A    between atoms: _206  and  _207
REMARK   83  A    between atoms: _206  and  _209
REMARK   84  A    between atoms: _209  and  _210
REMARK   85  A    between atoms: _216  and  _218
REMARK   86  A    between atoms: _218  and  _219
REMARK   87  A    between atoms: _218  and  _221
REMARK   88  A    between atoms: _221  and  _222
REMARK   89  A    between atoms: _225  and  _227
REMARK   90  A    between atoms: _227  and  _228
REMARK   91  A    between atoms: _227  and  _230
REMARK   92  A    between atoms: _230  and  _231
REMARK   93  A    between atoms: _231  and  _232
REMARK   94  A    between atoms: _232  and  _233
REMARK   95  A    between atoms: _242  and  _244
REMARK   96  A    between atoms: _244  and  _245
REMARK   97  A    between atoms: _244  and  _247
REMARK   98  A    between atoms: _247  and  _248
REMARK   99  A    between atoms: _253  and  _255
REMARK  100  A    between atoms: _255  and  _256
REMARK  101  A    between atoms: _259  and  _261
REMARK  102  A    between atoms: _261  and  _262
REMARK  103  A    between atoms: _261  and  _264
REMARK  104  A    between atoms: _264  and  _265
REMARK  105  A    between atoms: _270  and  _272
REMARK  106  A    between atoms: _272  and  _273
REMARK  107  A    between atoms: _272  and  _275
REMARK  108  A    between atoms: _275  and  _276
REMARK  109  A    between atoms: _279  and  _281
REMARK  110  A    between atoms: _281  and  _282
REMARK  111  A    between atoms: _281  and  _284
REMARK  112  A    between atoms: _284  and  _285
REMARK  113  A    between atoms: _285  and  _286
REMARK  114  A    between atoms: _286  and  _288
REMARK  115  A    between atoms: _289  and  _291
REMARK  116  A    between atoms: _291  and  _292
REMARK  117  A    between atoms: _291  and  _294
REMARK  118  A    between atoms: _294  and  _295
REMARK  119  A    between atoms: _298  and  _300
REMARK  120  A    between atoms: _300  and  _301
REMARK  121  A    between atoms: _300  and  _303
REMARK  122  A    between atoms: _303  and  _304
REMARK  123  A    between atoms: _309  and  _311
REMARK  124  A    between atoms: _311  and  _312
REMARK  125  A    between atoms: _311  and  _314
REMARK  126  A    between atoms: _314  and  _315
REMARK  127  A    between atoms: _318  and  _320
REMARK  128  A    between atoms: _320  and  _321
REMARK  129  A    between atoms: _323  and  _325
REMARK  130  A    between atoms: _325  and  _326
REMARK  131  A    between atoms: _325  and  _328
REMARK  132  A    between atoms: _328  and  _329
REMARK  133  A    between atoms: _334  and  _335
REMARK  134  A    between atoms: _337  and  _339
REMARK  135  A    between atoms: _339  and  _340
REMARK  136  A    between atoms: _339  and  _342
REMARK  137  A    between atoms: _342  and  _343
REMARK  138  A    between atoms: _348  and  _349
REMARK  139  A    between atoms: _351  and  _353
REMARK  140  A    between atoms: _353  and  _354
REMARK  141  A    between atoms: _353  and  _356
REMARK  142  A    between atoms: _356  and  _357
REMARK  143  A    between atoms: _357  and  _358
REMARK  144  A    between atoms: _361  and  _363
REMARK  145  A    between atoms: _363  and  _364
REMARK  146  A    between atoms: _363  and  _366
REMARK  147  A    between atoms: _366  and  _367
REMARK  148  A    between atoms: _367  and  _368
REMARK  149  A    between atoms: _368  and  _369
REMARK  150  A    between atoms: _378  and  _380
REMARK  151  A    between atoms: _380  and  _381
REMARK  152  A    between atoms: _380  and  _383
REMARK  153  A    between atoms: _383  and  _384
REMARK                            x       y       z     vdW  Elec       q    Type
REMARK                         _______ _______ _______ _____ _____    ______ ____
ROOT
ATOM      1  O   HOH     1      24.450  -3.466   1.755  0.00  0.00    +0.000 OA
ENDROOT
TORSDOF 0
