REMARK  Name = ../refined-set-2016/2baj/2baj_pocket.pdb
REMARK  254 active torsions:
REMARK  status: ('A' for Active; 'I' for Inactive)
REMARK    1  A    between atoms: _1  and  _3
REMARK    2  A    between atoms: _3  and  _4
REMARK    3  A    between atoms: _3  and  _6
REMARK    4  A    between atoms: _6  and  _7
REMARK    5  A    between atoms: _17  and  _19
REMARK    6  A    between atoms: _19  and  _20
REMARK    7  A    between atoms: _19  and  _22
REMARK    8  A    between atoms: _25  and  _27
REMARK    9  A    between atoms: _27  and  _28
REMARK   10  A    between atoms: _27  and  _30
REMARK   11  A    between atoms: _30  and  _31
REMARK   12  A    between atoms: _36  and  _37
REMARK   13  A    between atoms: _39  and  _41
REMARK   14  A    between atoms: _41  and  _42
REMARK   15  A    between atoms: _41  and  _44
REMARK   16  A    between atoms: _44  and  _45
REMARK   17  A    between atoms: _47  and  _49
REMARK   18  A    between atoms: _49  and  _50
REMARK   19  A    between atoms: _49  and  _52
REMARK   20  A    between atoms: _55  and  _57
REMARK   21  A    between atoms: _57  and  _58
REMARK   22  A    between atoms: _57  and  _60
REMARK   23  A    between atoms: _62  and  _64
REMARK   24  A    between atoms: _64  and  _65
REMARK   25  A    between atoms: _68  and  _70
REMARK   26  A    between atoms: _70  and  _71
REMARK   27  A    between atoms: _70  and  _73
REMARK   28  A    between atoms: _76  and  _78
REMARK   29  A    between atoms: _78  and  _79
REMARK   30  A    between atoms: _82  and  _84
REMARK   31  A    between atoms: _84  and  _85
REMARK   32  A    between atoms: _84  and  _87
REMARK   33  A    between atoms: _90  and  _92
REMARK   34  A    between atoms: _92  and  _93
REMARK   35  A    between atoms: _92  and  _95
REMARK   36  A    between atoms: _95  and  _96
REMARK   37  A    between atoms: _96  and  _97
REMARK   38  A    between atoms: _97  and  _98
REMARK   39  A    between atoms: _98  and  _99
REMARK   40  A    between atoms: _103  and  _105
REMARK   41  A    between atoms: _105  and  _106
REMARK   42  A    between atoms: _105  and  _108
REMARK   43  A    between atoms: _108  and  _109
REMARK   44  A    between atoms: _109  and  _110
REMARK   45  A    between atoms: _110  and  _111
REMARK   46  A    between atoms: _111  and  _112
REMARK   47  A    between atoms: _116  and  _118
REMARK   48  A    between atoms: _118  and  _119
REMARK   49  A    between atoms: _118  and  _121
REMARK   50  A    between atoms: _121  and  _122
REMARK   51  A    between atoms: _125  and  _127
REMARK   52  A    between atoms: _127  and  _128
REMARK   53  A    between atoms: _127  and  _130
REMARK   54  A    between atoms: _130  and  _131
REMARK   55  A    between atoms: _131  and  _132
REMARK   56  A    between atoms: _132  and  _133
REMARK   57  A    between atoms: _133  and  _134
REMARK   58  A    between atoms: _138  and  _140
REMARK   59  A    between atoms: _140  and  _141
REMARK   60  A    between atoms: _140  and  _143
REMARK   61  A    between atoms: _143  and  _144
REMARK   62  A    between atoms: _144  and  _145
REMARK   63  A    between atoms: _145  and  _146
REMARK   64  A    between atoms: _155  and  _157
REMARK   65  A    between atoms: _157  and  _158
REMARK   66  A    between atoms: _157  and  _160
REMARK   67  A    between atoms: _160  and  _161
REMARK   68  A    between atoms: _164  and  _166
REMARK   69  A    between atoms: _166  and  _167
REMARK   70  A    between atoms: _166  and  _169
REMARK   71  A    between atoms: _169  and  _170
REMARK   72  A    between atoms: _175  and  _176
REMARK   73  A    between atoms: _178  and  _180
REMARK   74  A    between atoms: _180  and  _181
REMARK   75  A    between atoms: _180  and  _183
REMARK   76  A    between atoms: _183  and  _184
REMARK   77  A    between atoms: _184  and  _185
REMARK   78  A    between atoms: _185  and  _186
REMARK   79  A    between atoms: _195  and  _197
REMARK   80  A    between atoms: _197  and  _198
REMARK   81  A    between atoms: _197  and  _200
REMARK   82  A    between atoms: _200  and  _201
REMARK   83  A    between atoms: _201  and  _202
REMARK   84  A    between atoms: _205  and  _207
REMARK   85  A    between atoms: _207  and  _208
REMARK   86  A    between atoms: _207  and  _210
REMARK   87  A    between atoms: _210  and  _211
REMARK   88  A    between atoms: _214  and  _216
REMARK   89  A    between atoms: _216  and  _217
REMARK   90  A    between atoms: _216  and  _219
REMARK   91  A    between atoms: _219  and  _220
REMARK   92  A    between atoms: _220  and  _221
REMARK   93  A    between atoms: _221  and  _222
REMARK   94  A    between atoms: _231  and  _233
REMARK   95  A    between atoms: _233  and  _234
REMARK   96  A    between atoms: _233  and  _236
REMARK   97  A    between atoms: _236  and  _237
REMARK   98  A    between atoms: _240  and  _242
REMARK   99  A    between atoms: _242  and  _243
REMARK  100  A    between atoms: _242  and  _245
REMARK  101  A    between atoms: _245  and  _246
REMARK  102  A    between atoms: _249  and  _251
REMARK  103  A    between atoms: _251  and  _252
REMARK  104  A    between atoms: _251  and  _254
REMARK  105  A    between atoms: _254  and  _255
REMARK  106  A    between atoms: _260  and  _262
REMARK  107  A    between atoms: _262  and  _263
REMARK  108  A    between atoms: _262  and  _265
REMARK  109  A    between atoms: _265  and  _266
REMARK  110  A    between atoms: _266  and  _267
REMARK  111  A    between atoms: _269  and  _271
REMARK  112  A    between atoms: _271  and  _272
REMARK  113  A    between atoms: _271  and  _274
REMARK  114  A    between atoms: _274  and  _275
REMARK  115  A    between atoms: _280  and  _282
REMARK  116  A    between atoms: _282  and  _283
REMARK  117  A    between atoms: _282  and  _285
REMARK  118  A    between atoms: _288  and  _290
REMARK  119  A    between atoms: _290  and  _291
REMARK  120  A    between atoms: _290  and  _293
REMARK  121  A    between atoms: _293  and  _294
REMARK  122  A    between atoms: _297  and  _299
REMARK  123  A    between atoms: _299  and  _300
REMARK  124  A    between atoms: _302  and  _304
REMARK  125  A    between atoms: _304  and  _305
REMARK  126  A    between atoms: _304  and  _307
REMARK  127  A    between atoms: _307  and  _308
REMARK  128  A    between atoms: _311  and  _313
REMARK  129  A    between atoms: _313  and  _314
REMARK  130  A    between atoms: _313  and  _316
REMARK  131  A    between atoms: _316  and  _317
REMARK  132  A    between atoms: _320  and  _322
REMARK  133  A    between atoms: _322  and  _323
REMARK  134  A    between atoms: _322  and  _325
REMARK  135  A    between atoms: _325  and  _326
REMARK  136  A    between atoms: _329  and  _331
REMARK  137  A    between atoms: _331  and  _332
REMARK  138  A    between atoms: _331  and  _334
REMARK  139  A    between atoms: _334  and  _335
REMARK  140  A    between atoms: _340  and  _341
REMARK  141  A    between atoms: _343  and  _345
REMARK  142  A    between atoms: _345  and  _346
REMARK  143  A    between atoms: _345  and  _348
REMARK  144  A    between atoms: _348  and  _349
REMARK  145  A    between atoms: _352  and  _354
REMARK  146  A    between atoms: _354  and  _355
REMARK  147  A    between atoms: _354  and  _357
REMARK  148  A    between atoms: _360  and  _362
REMARK  149  A    between atoms: _362  and  _363
REMARK  150  A    between atoms: _362  and  _365
REMARK  151  A    between atoms: _365  and  _366
REMARK  152  A    between atoms: _369  and  _371
REMARK  153  A    between atoms: _371  and  _372
REMARK  154  A    between atoms: _371  and  _374
REMARK  155  A    between atoms: _374  and  _375
REMARK  156  A    between atoms: _380  and  _382
REMARK  157  A    between atoms: _382  and  _383
REMARK  158  A    between atoms: _382  and  _385
REMARK  159  A    between atoms: _385  and  _386
REMARK  160  A    between atoms: _389  and  _391
REMARK  161  A    between atoms: _391  and  _392
REMARK  162  A    between atoms: _391  and  _394
REMARK  163  A    between atoms: _394  and  _395
REMARK  164  A    between atoms: _395  and  _396
REMARK  165  A    between atoms: _398  and  _400
REMARK  166  A    between atoms: _400  and  _401
REMARK  167  A    between atoms: _403  and  _405
REMARK  168  A    between atoms: _405  and  _406
REMARK  169  A    between atoms: _405  and  _408
REMARK  170  A    between atoms: _408  and  _409
REMARK  171  A    between atoms: _412  and  _414
REMARK  172  A    between atoms: _414  and  _415
REMARK  173  A    between atoms: _414  and  _417
REMARK  174  A    between atoms: _417  and  _418
REMARK  175  A    between atoms: _423  and  _424
REMARK  176  A    between atoms: _426  and  _428
REMARK  177  A    between atoms: _428  and  _429
REMARK  178  A    between atoms: _428  and  _431
REMARK  179  A    between atoms: _431  and  _432
REMARK  180  A    between atoms: _435  and  _437
REMARK  181  A    between atoms: _437  and  _438
REMARK  182  A    between atoms: _437  and  _440
REMARK  183  A    between atoms: _440  and  _441
REMARK  184  A    between atoms: _444  and  _446
REMARK  185  A    between atoms: _446  and  _447
REMARK  186  A    between atoms: _446  and  _449
REMARK  187  A    between atoms: _449  and  _450
REMARK  188  A    between atoms: _453  and  _455
REMARK  189  A    between atoms: _455  and  _456
REMARK  190  A    between atoms: _455  and  _458
REMARK  191  A    between atoms: _458  and  _459
REMARK  192  A    between atoms: _464  and  _466
REMARK  193  A    between atoms: _466  and  _467
REMARK  194  A    between atoms: _466  and  _469
REMARK  195  A    between atoms: _469  and  _470
REMARK  196  A    between atoms: _470  and  _471
REMARK  197  A    between atoms: _471  and  _472
REMARK  198  A    between atoms: _481  and  _483
REMARK  199  A    between atoms: _483  and  _484
REMARK  200  A    between atoms: _483  and  _486
REMARK  201  A    between atoms: _486  and  _487
REMARK  202  A    between atoms: _490  and  _492
REMARK  203  A    between atoms: _492  and  _493
REMARK  204  A    between atoms: _492  and  _495
REMARK  205  A    between atoms: _495  and  _496
REMARK  206  A    between atoms: _499  and  _501
REMARK  207  A    between atoms: _501  and  _502
REMARK  208  A    between atoms: _501  and  _504
REMARK  209  A    between atoms: _504  and  _505
REMARK  210  A    between atoms: _507  and  _509
REMARK  211  A    between atoms: _509  and  _510
REMARK  212  A    between atoms: _509  and  _512
REMARK  213  A    between atoms: _512  and  _513
REMARK  214  A    between atoms: _518  and  _520
REMARK  215  A    between atoms: _520  and  _521
REMARK  216  A    between atoms: _524  and  _526
REMARK  217  A    between atoms: _526  and  _527
REMARK  218  A    between atoms: _526  and  _529
REMARK  219  A    between atoms: _529  and  _530
REMARK  220  A    between atoms: _530  and  _531
REMARK  221  A    between atoms: _531  and  _532
REMARK  222  A    between atoms: _532  and  _533
REMARK  223  A    between atoms: _537  and  _539
REMARK  224  A    between atoms: _539  and  _540
REMARK  225  A    between atoms: _539  and  _542
REMARK  226  A    between atoms: _542  and  _543
REMARK  227  A    between atoms: _546  and  _548
REMARK  228  A    between atoms: _548  and  _549
REMARK  229  A    between atoms: _548  and  _551
REMARK  230  A    between atoms: _551  and  _552
REMARK  231  A    between atoms: _555  and  _557
REMARK  232  A    between atoms: _557  and  _558
REMARK  233  A    between atoms: _557  and  _560
REMARK  234  A    between atoms: _560  and  _561
REMARK  235  A    between atoms: _564  and  _566
REMARK  236  A    between atoms: _566  and  _567
REMARK  237  A    between atoms: _566  and  _569
REMARK  238  A    between atoms: _569  and  _570
REMARK  239  A    between atoms: _576  and  _578
REMARK  240  A    between atoms: _578  and  _579
REMARK  241  A    between atoms: _581  and  _583
REMARK  242  A    between atoms: _583  and  _584
REMARK  243  A    between atoms: _583  and  _586
REMARK  244  A    between atoms: _586  and  _587
REMARK  245  A    between atoms: _590  and  _592
REMARK  246  A    between atoms: _592  and  _593
REMARK  247  A    between atoms: _596  and  _598
REMARK  248  A    between atoms: _598  and  _599
REMARK  249  A    between atoms: _598  and  _601
REMARK  250  A    between atoms: _601  and  _602
REMARK  251  A    between atoms: _607  and  _609
REMARK  252  A    between atoms: _609  and  _610
REMARK  253  A    between atoms: _609  and  _612
REMARK  254  A    between atoms: _612  and  _613
REMARK                            x       y       z     vdW  Elec       q    Type
REMARK                         _______ _______ _______ _____ _____    ______ ____
ROOT
ATOM      1  CG  TRP A   1      21.562 -14.751  35.219  0.00  0.00    -0.002 A 
ATOM      2  CD1 TRP A   1      22.200 -14.264  36.342  0.00  0.00    +0.068 A 
ATOM      3  NE1 TRP A   1      22.163 -12.892  36.359  0.00  0.00    -0.352 N 
ATOM      4  HE1 TRP A   1      22.578 -12.286  37.095  0.00  0.00    +0.166 HD
ATOM      5  CE2 TRP A   1      21.493 -12.451  35.252  0.00  0.00    +0.056 A 
ATOM      6  CZ2 TRP A   1      21.237 -11.164  34.824  0.00  0.00    +0.017 A 
ATOM      7  CH2 TRP A   1      20.519 -11.028  33.677  0.00  0.00    +0.001 A 
ATOM      8  CZ3 TRP A   1      20.107 -12.120  32.946  0.00  0.00    +0.000 A 
ATOM      9  CE3 TRP A   1      20.376 -13.401  33.347  0.00  0.00    +0.001 A 
ATOM     10  CD2 TRP A   1      21.085 -13.595  34.516  0.00  0.00    +0.013 A 
ENDROOT
BRANCH   1  11
ATOM     11  CB  TRP A   1      21.359 -16.195  34.856  0.00  0.00    +0.053 C 
BRANCH  11  12
ATOM     12  CA  TRP A   1      20.726 -16.973  36.021  0.00  0.00    +0.137 C 
BRANCH  12  13
ATOM     13  N   TRP A   1      21.662 -17.007  37.155  0.00  0.00    -0.239 NA
ATOM     14  H   TRP A   1      22.681 -17.070  36.957  0.00  0.00    +0.142 HD
ENDBRANCH  12  13
BRANCH  12  15
ATOM     15  C   TRP A   1      20.326 -18.367  35.547  0.00  0.00    +0.224 C 
ATOM     16  O   TRP A   1      21.173 -19.205  35.313  0.00  0.00    -0.287 OA
ENDBRANCH  12  15
ENDBRANCH  11  12
ENDBRANCH   1  11
TORSDOF 4
REMARK  Name = ../refined-set-2016/2baj/2baj_pocket.pdb
REMARK  254 active torsions:
REMARK  status: ('A' for Active; 'I' for Inactive)
REMARK    1  A    between atoms: _1  and  _3
REMARK    2  A    between atoms: _3  and  _4
REMARK    3  A    between atoms: _3  and  _6
REMARK    4  A    between atoms: _6  and  _7
REMARK    5  A    between atoms: _17  and  _19
REMARK    6  A    between atoms: _19  and  _20
REMARK    7  A    between atoms: _19  and  _22
REMARK    8  A    between atoms: _25  and  _27
REMARK    9  A    between atoms: _27  and  _28
REMARK   10  A    between atoms: _27  and  _30
REMARK   11  A    between atoms: _30  and  _31
REMARK   12  A    between atoms: _36  and  _37
REMARK   13  A    between atoms: _39  and  _41
REMARK   14  A    between atoms: _41  and  _42
REMARK   15  A    between atoms: _41  and  _44
REMARK   16  A    between atoms: _44  and  _45
REMARK   17  A    between atoms: _47  and  _49
REMARK   18  A    between atoms: _49  and  _50
REMARK   19  A    between atoms: _49  and  _52
REMARK   20  A    between atoms: _55  and  _57
REMARK   21  A    between atoms: _57  and  _58
REMARK   22  A    between atoms: _57  and  _60
REMARK   23  A    between atoms: _62  and  _64
REMARK   24  A    between atoms: _64  and  _65
REMARK   25  A    between atoms: _68  and  _70
REMARK   26  A    between atoms: _70  and  _71
REMARK   27  A    between atoms: _70  and  _73
REMARK   28  A    between atoms: _76  and  _78
REMARK   29  A    between atoms: _78  and  _79
REMARK   30  A    between atoms: _82  and  _84
REMARK   31  A    between atoms: _84  and  _85
REMARK   32  A    between atoms: _84  and  _87
REMARK   33  A    between atoms: _90  and  _92
REMARK   34  A    between atoms: _92  and  _93
REMARK   35  A    between atoms: _92  and  _95
REMARK   36  A    between atoms: _95  and  _96
REMARK   37  A    between atoms: _96  and  _97
REMARK   38  A    between atoms: _97  and  _98
REMARK   39  A    between atoms: _98  and  _99
REMARK   40  A    between atoms: _103  and  _105
REMARK   41  A    between atoms: _105  and  _106
REMARK   42  A    between atoms: _105  and  _108
REMARK   43  A    between atoms: _108  and  _109
REMARK   44  A    between atoms: _109  and  _110
REMARK   45  A    between atoms: _110  and  _111
REMARK   46  A    between atoms: _111  and  _112
REMARK   47  A    between atoms: _116  and  _118
REMARK   48  A    between atoms: _118  and  _119
REMARK   49  A    between atoms: _118  and  _121
REMARK   50  A    between atoms: _121  and  _122
REMARK   51  A    between atoms: _125  and  _127
REMARK   52  A    between atoms: _127  and  _128
REMARK   53  A    between atoms: _127  and  _130
REMARK   54  A    between atoms: _130  and  _131
REMARK   55  A    between atoms: _131  and  _132
REMARK   56  A    between atoms: _132  and  _133
REMARK   57  A    between atoms: _133  and  _134
REMARK   58  A    between atoms: _138  and  _140
REMARK   59  A    between atoms: _140  and  _141
REMARK   60  A    between atoms: _140  and  _143
REMARK   61  A    between atoms: _143  and  _144
REMARK   62  A    between atoms: _144  and  _145
REMARK   63  A    between atoms: _145  and  _146
REMARK   64  A    between atoms: _155  and  _157
REMARK   65  A    between atoms: _157  and  _158
REMARK   66  A    between atoms: _157  and  _160
REMARK   67  A    between atoms: _160  and  _161
REMARK   68  A    between atoms: _164  and  _166
REMARK   69  A    between atoms: _166  and  _167
REMARK   70  A    between atoms: _166  and  _169
REMARK   71  A    between atoms: _169  and  _170
REMARK   72  A    between atoms: _175  and  _176
REMARK   73  A    between atoms: _178  and  _180
REMARK   74  A    between atoms: _180  and  _181
REMARK   75  A    between atoms: _180  and  _183
REMARK   76  A    between atoms: _183  and  _184
REMARK   77  A    between atoms: _184  and  _185
REMARK   78  A    between atoms: _185  and  _186
REMARK   79  A    between atoms: _195  and  _197
REMARK   80  A    between atoms: _197  and  _198
REMARK   81  A    between atoms: _197  and  _200
REMARK   82  A    between atoms: _200  and  _201
REMARK   83  A    between atoms: _201  and  _202
REMARK   84  A    between atoms: _205  and  _207
REMARK   85  A    between atoms: _207  and  _208
REMARK   86  A    between atoms: _207  and  _210
REMARK   87  A    between atoms: _210  and  _211
REMARK   88  A    between atoms: _214  and  _216
REMARK   89  A    between atoms: _216  and  _217
REMARK   90  A    between atoms: _216  and  _219
REMARK   91  A    between atoms: _219  and  _220
REMARK   92  A    between atoms: _220  and  _221
REMARK   93  A    between atoms: _221  and  _222
REMARK   94  A    between atoms: _231  and  _233
REMARK   95  A    between atoms: _233  and  _234
REMARK   96  A    between atoms: _233  and  _236
REMARK   97  A    between atoms: _236  and  _237
REMARK   98  A    between atoms: _240  and  _242
REMARK   99  A    between atoms: _242  and  _243
REMARK  100  A    between atoms: _242  and  _245
REMARK  101  A    between atoms: _245  and  _246
REMARK  102  A    between atoms: _249  and  _251
REMARK  103  A    between atoms: _251  and  _252
REMARK  104  A    between atoms: _251  and  _254
REMARK  105  A    between atoms: _254  and  _255
REMARK  106  A    between atoms: _260  and  _262
REMARK  107  A    between atoms: _262  and  _263
REMARK  108  A    between atoms: _262  and  _265
REMARK  109  A    between atoms: _265  and  _266
REMARK  110  A    between atoms: _266  and  _267
REMARK  111  A    between atoms: _269  and  _271
REMARK  112  A    between atoms: _271  and  _272
REMARK  113  A    between atoms: _271  and  _274
REMARK  114  A    between atoms: _274  and  _275
REMARK  115  A    between atoms: _280  and  _282
REMARK  116  A    between atoms: _282  and  _283
REMARK  117  A    between atoms: _282  and  _285
REMARK  118  A    between atoms: _288  and  _290
REMARK  119  A    between atoms: _290  and  _291
REMARK  120  A    between atoms: _290  and  _293
REMARK  121  A    between atoms: _293  and  _294
REMARK  122  A    between atoms: _297  and  _299
REMARK  123  A    between atoms: _299  and  _300
REMARK  124  A    between atoms: _302  and  _304
REMARK  125  A    between atoms: _304  and  _305
REMARK  126  A    between atoms: _304  and  _307
REMARK  127  A    between atoms: _307  and  _308
REMARK  128  A    between atoms: _311  and  _313
REMARK  129  A    between atoms: _313  and  _314
REMARK  130  A    between atoms: _313  and  _316
REMARK  131  A    between atoms: _316  and  _317
REMARK  132  A    between atoms: _320  and  _322
REMARK  133  A    between atoms: _322  and  _323
REMARK  134  A    between atoms: _322  and  _325
REMARK  135  A    between atoms: _325  and  _326
REMARK  136  A    between atoms: _329  and  _331
REMARK  137  A    between atoms: _331  and  _332
REMARK  138  A    between atoms: _331  and  _334
REMARK  139  A    between atoms: _334  and  _335
REMARK  140  A    between atoms: _340  and  _341
REMARK  141  A    between atoms: _343  and  _345
REMARK  142  A    between atoms: _345  and  _346
REMARK  143  A    between atoms: _345  and  _348
REMARK  144  A    between atoms: _348  and  _349
REMARK  145  A    between atoms: _352  and  _354
REMARK  146  A    between atoms: _354  and  _355
REMARK  147  A    between atoms: _354  and  _357
REMARK  148  A    between atoms: _360  and  _362
REMARK  149  A    between atoms: _362  and  _363
REMARK  150  A    between atoms: _362  and  _365
REMARK  151  A    between atoms: _365  and  _366
REMARK  152  A    between atoms: _369  and  _371
REMARK  153  A    between atoms: _371  and  _372
REMARK  154  A    between atoms: _371  and  _374
REMARK  155  A    between atoms: _374  and  _375
REMARK  156  A    between atoms: _380  and  _382
REMARK  157  A    between atoms: _382  and  _383
REMARK  158  A    between atoms: _382  and  _385
REMARK  159  A    between atoms: _385  and  _386
REMARK  160  A    between atoms: _389  and  _391
REMARK  161  A    between atoms: _391  and  _392
REMARK  162  A    between atoms: _391  and  _394
REMARK  163  A    between atoms: _394  and  _395
REMARK  164  A    between atoms: _395  and  _396
REMARK  165  A    between atoms: _398  and  _400
REMARK  166  A    between atoms: _400  and  _401
REMARK  167  A    between atoms: _403  and  _405
REMARK  168  A    between atoms: _405  and  _406
REMARK  169  A    between atoms: _405  and  _408
REMARK  170  A    between atoms: _408  and  _409
REMARK  171  A    between atoms: _412  and  _414
REMARK  172  A    between atoms: _414  and  _415
REMARK  173  A    between atoms: _414  and  _417
REMARK  174  A    between atoms: _417  and  _418
REMARK  175  A    between atoms: _423  and  _424
REMARK  176  A    between atoms: _426  and  _428
REMARK  177  A    between atoms: _428  and  _429
REMARK  178  A    between atoms: _428  and  _431
REMARK  179  A    between atoms: _431  and  _432
REMARK  180  A    between atoms: _435  and  _437
REMARK  181  A    between atoms: _437  and  _438
REMARK  182  A    between atoms: _437  and  _440
REMARK  183  A    between atoms: _440  and  _441
REMARK  184  A    between atoms: _444  and  _446
REMARK  185  A    between atoms: _446  and  _447
REMARK  186  A    between atoms: _446  and  _449
REMARK  187  A    between atoms: _449  and  _450
REMARK  188  A    between atoms: _453  and  _455
REMARK  189  A    between atoms: _455  and  _456
REMARK  190  A    between atoms: _455  and  _458
REMARK  191  A    between atoms: _458  and  _459
REMARK  192  A    between atoms: _464  and  _466
REMARK  193  A    between atoms: _466  and  _467
REMARK  194  A    between atoms: _466  and  _469
REMARK  195  A    between atoms: _469  and  _470
REMARK  196  A    between atoms: _470  and  _471
REMARK  197  A    between atoms: _471  and  _472
REMARK  198  A    between atoms: _481  and  _483
REMARK  199  A    between atoms: _483  and  _484
REMARK  200  A    between atoms: _483  and  _486
REMARK  201  A    between atoms: _486  and  _487
REMARK  202  A    between atoms: _490  and  _492
REMARK  203  A    between atoms: _492  and  _493
REMARK  204  A    between atoms: _492  and  _495
REMARK  205  A    between atoms: _495  and  _496
REMARK  206  A    between atoms: _499  and  _501
REMARK  207  A    between atoms: _501  and  _502
REMARK  208  A    between atoms: _501  and  _504
REMARK  209  A    between atoms: _504  and  _505
REMARK  210  A    between atoms: _507  and  _509
REMARK  211  A    between atoms: _509  and  _510
REMARK  212  A    between atoms: _509  and  _512
REMARK  213  A    between atoms: _512  and  _513
REMARK  214  A    between atoms: _518  and  _520
REMARK  215  A    between atoms: _520  and  _521
REMARK  216  A    between atoms: _524  and  _526
REMARK  217  A    between atoms: _526  and  _527
REMARK  218  A    between atoms: _526  and  _529
REMARK  219  A    between atoms: _529  and  _530
REMARK  220  A    between atoms: _530  and  _531
REMARK  221  A    between atoms: _531  and  _532
REMARK  222  A    between atoms: _532  and  _533
REMARK  223  A    between atoms: _537  and  _539
REMARK  224  A    between atoms: _539  and  _540
REMARK  225  A    between atoms: _539  and  _542
REMARK  226  A    between atoms: _542  and  _543
REMARK  227  A    between atoms: _546  and  _548
REMARK  228  A    between atoms: _548  and  _549
REMARK  229  A    between atoms: _548  and  _551
REMARK  230  A    between atoms: _551  and  _552
REMARK  231  A    between atoms: _555  and  _557
REMARK  232  A    between atoms: _557  and  _558
REMARK  233  A    between atoms: _557  and  _560
REMARK  234  A    between atoms: _560  and  _561
REMARK  235  A    between atoms: _564  and  _566
REMARK  236  A    between atoms: _566  and  _567
REMARK  237  A    between atoms: _566  and  _569
REMARK  238  A    between atoms: _569  and  _570
REMARK  239  A    between atoms: _576  and  _578
REMARK  240  A    between atoms: _578  and  _579
REMARK  241  A    between atoms: _581  and  _583
REMARK  242  A    between atoms: _583  and  _584
REMARK  243  A    between atoms: _583  and  _586
REMARK  244  A    between atoms: _586  and  _587
REMARK  245  A    between atoms: _590  and  _592
REMARK  246  A    between atoms: _592  and  _593
REMARK  247  A    between atoms: _596  and  _598
REMARK  248  A    between atoms: _598  and  _599
REMARK  249  A    between atoms: _598  and  _601
REMARK  250  A    between atoms: _601  and  _602
REMARK  251  A    between atoms: _607  and  _609
REMARK  252  A    between atoms: _609  and  _610
REMARK  253  A    between atoms: _609  and  _612
REMARK  254  A    between atoms: _612  and  _613
REMARK                            x       y       z     vdW  Elec       q    Type
REMARK                         _______ _______ _______ _____ _____    ______ ____
ROOT
ATOM      1  CA  VAL A   1      26.400  -5.089  31.627  0.00  0.00    +0.133 C 
ENDROOT
BRANCH   1   2
ATOM      2  CB  VAL A   1      25.862  -4.838  30.172  0.00  0.00    +0.023 C 
ATOM      3  CG2 VAL A   1      24.511  -5.471  29.944  0.00  0.00    +0.002 C 
ATOM      4  CG1 VAL A   1      26.871  -5.372  29.153  0.00  0.00    +0.002 C 
ENDBRANCH   1   2
BRANCH   1   5
ATOM      5  N   VAL A   1      26.225  -6.470  32.053  0.00  0.00    -0.239 NA
ATOM      6  H   VAL A   1      25.282  -6.813  32.328  0.00  0.00    +0.142 HD
ENDBRANCH   1   5
BRANCH   1   7
ATOM      7  C   VAL A   1      25.870  -4.045  32.612  0.00  0.00    +0.224 C 
ATOM      8  O   VAL A   1      26.046  -2.858  32.379  0.00  0.00    -0.287 OA
ENDBRANCH   1   7
TORSDOF 3
REMARK  Name = ../refined-set-2016/2baj/2baj_pocket.pdb
REMARK  254 active torsions:
REMARK  status: ('A' for Active; 'I' for Inactive)
REMARK    1  A    between atoms: _1  and  _3
REMARK    2  A    between atoms: _3  and  _4
REMARK    3  A    between atoms: _3  and  _6
REMARK    4  A    between atoms: _6  and  _7
REMARK    5  A    between atoms: _17  and  _19
REMARK    6  A    between atoms: _19  and  _20
REMARK    7  A    between atoms: _19  and  _22
REMARK    8  A    between atoms: _25  and  _27
REMARK    9  A    between atoms: _27  and  _28
REMARK   10  A    between atoms: _27  and  _30
REMARK   11  A    between atoms: _30  and  _31
REMARK   12  A    between atoms: _36  and  _37
REMARK   13  A    between atoms: _39  and  _41
REMARK   14  A    between atoms: _41  and  _42
REMARK   15  A    between atoms: _41  and  _44
REMARK   16  A    between atoms: _44  and  _45
REMARK   17  A    between atoms: _47  and  _49
REMARK   18  A    between atoms: _49  and  _50
REMARK   19  A    between atoms: _49  and  _52
REMARK   20  A    between atoms: _55  and  _57
REMARK   21  A    between atoms: _57  and  _58
REMARK   22  A    between atoms: _57  and  _60
REMARK   23  A    between atoms: _62  and  _64
REMARK   24  A    between atoms: _64  and  _65
REMARK   25  A    between atoms: _68  and  _70
REMARK   26  A    between atoms: _70  and  _71
REMARK   27  A    between atoms: _70  and  _73
REMARK   28  A    between atoms: _76  and  _78
REMARK   29  A    between atoms: _78  and  _79
REMARK   30  A    between atoms: _82  and  _84
REMARK   31  A    between atoms: _84  and  _85
REMARK   32  A    between atoms: _84  and  _87
REMARK   33  A    between atoms: _90  and  _92
REMARK   34  A    between atoms: _92  and  _93
REMARK   35  A    between atoms: _92  and  _95
REMARK   36  A    between atoms: _95  and  _96
REMARK   37  A    between atoms: _96  and  _97
REMARK   38  A    between atoms: _97  and  _98
REMARK   39  A    between atoms: _98  and  _99
REMARK   40  A    between atoms: _103  and  _105
REMARK   41  A    between atoms: _105  and  _106
REMARK   42  A    between atoms: _105  and  _108
REMARK   43  A    between atoms: _108  and  _109
REMARK   44  A    between atoms: _109  and  _110
REMARK   45  A    between atoms: _110  and  _111
REMARK   46  A    between atoms: _111  and  _112
REMARK   47  A    between atoms: _116  and  _118
REMARK   48  A    between atoms: _118  and  _119
REMARK   49  A    between atoms: _118  and  _121
REMARK   50  A    between atoms: _121  and  _122
REMARK   51  A    between atoms: _125  and  _127
REMARK   52  A    between atoms: _127  and  _128
REMARK   53  A    between atoms: _127  and  _130
REMARK   54  A    between atoms: _130  and  _131
REMARK   55  A    between atoms: _131  and  _132
REMARK   56  A    between atoms: _132  and  _133
REMARK   57  A    between atoms: _133  and  _134
REMARK   58  A    between atoms: _138  and  _140
REMARK   59  A    between atoms: _140  and  _141
REMARK   60  A    between atoms: _140  and  _143
REMARK   61  A    between atoms: _143  and  _144
REMARK   62  A    between atoms: _144  and  _145
REMARK   63  A    between atoms: _145  and  _146
REMARK   64  A    between atoms: _155  and  _157
REMARK   65  A    between atoms: _157  and  _158
REMARK   66  A    between atoms: _157  and  _160
REMARK   67  A    between atoms: _160  and  _161
REMARK   68  A    between atoms: _164  and  _166
REMARK   69  A    between atoms: _166  and  _167
REMARK   70  A    between atoms: _166  and  _169
REMARK   71  A    between atoms: _169  and  _170
REMARK   72  A    between atoms: _175  and  _176
REMARK   73  A    between atoms: _178  and  _180
REMARK   74  A    between atoms: _180  and  _181
REMARK   75  A    between atoms: _180  and  _183
REMARK   76  A    between atoms: _183  and  _184
REMARK   77  A    between atoms: _184  and  _185
REMARK   78  A    between atoms: _185  and  _186
REMARK   79  A    between atoms: _195  and  _197
REMARK   80  A    between atoms: _197  and  _198
REMARK   81  A    between atoms: _197  and  _200
REMARK   82  A    between atoms: _200  and  _201
REMARK   83  A    between atoms: _201  and  _202
REMARK   84  A    between atoms: _205  and  _207
REMARK   85  A    between atoms: _207  and  _208
REMARK   86  A    between atoms: _207  and  _210
REMARK   87  A    between atoms: _210  and  _211
REMARK   88  A    between atoms: _214  and  _216
REMARK   89  A    between atoms: _216  and  _217
REMARK   90  A    between atoms: _216  and  _219
REMARK   91  A    between atoms: _219  and  _220
REMARK   92  A    between atoms: _220  and  _221
REMARK   93  A    between atoms: _221  and  _222
REMARK   94  A    between atoms: _231  and  _233
REMARK   95  A    between atoms: _233  and  _234
REMARK   96  A    between atoms: _233  and  _236
REMARK   97  A    between atoms: _236  and  _237
REMARK   98  A    between atoms: _240  and  _242
REMARK   99  A    between atoms: _242  and  _243
REMARK  100  A    between atoms: _242  and  _245
REMARK  101  A    between atoms: _245  and  _246
REMARK  102  A    between atoms: _249  and  _251
REMARK  103  A    between atoms: _251  and  _252
REMARK  104  A    between atoms: _251  and  _254
REMARK  105  A    between atoms: _254  and  _255
REMARK  106  A    between atoms: _260  and  _262
REMARK  107  A    between atoms: _262  and  _263
REMARK  108  A    between atoms: _262  and  _265
REMARK  109  A    between atoms: _265  and  _266
REMARK  110  A    between atoms: _266  and  _267
REMARK  111  A    between atoms: _269  and  _271
REMARK  112  A    between atoms: _271  and  _272
REMARK  113  A    between atoms: _271  and  _274
REMARK  114  A    between atoms: _274  and  _275
REMARK  115  A    between atoms: _280  and  _282
REMARK  116  A    between atoms: _282  and  _283
REMARK  117  A    between atoms: _282  and  _285
REMARK  118  A    between atoms: _288  and  _290
REMARK  119  A    between atoms: _290  and  _291
REMARK  120  A    between atoms: _290  and  _293
REMARK  121  A    between atoms: _293  and  _294
REMARK  122  A    between atoms: _297  and  _299
REMARK  123  A    between atoms: _299  and  _300
REMARK  124  A    between atoms: _302  and  _304
REMARK  125  A    between atoms: _304  and  _305
REMARK  126  A    between atoms: _304  and  _307
REMARK  127  A    between atoms: _307  and  _308
REMARK  128  A    between atoms: _311  and  _313
REMARK  129  A    between atoms: _313  and  _314
REMARK  130  A    between atoms: _313  and  _316
REMARK  131  A    between atoms: _316  and  _317
REMARK  132  A    between atoms: _320  and  _322
REMARK  133  A    between atoms: _322  and  _323
REMARK  134  A    between atoms: _322  and  _325
REMARK  135  A    between atoms: _325  and  _326
REMARK  136  A    between atoms: _329  and  _331
REMARK  137  A    between atoms: _331  and  _332
REMARK  138  A    between atoms: _331  and  _334
REMARK  139  A    between atoms: _334  and  _335
REMARK  140  A    between atoms: _340  and  _341
REMARK  141  A    between atoms: _343  and  _345
REMARK  142  A    between atoms: _345  and  _346
REMARK  143  A    between atoms: _345  and  _348
REMARK  144  A    between atoms: _348  and  _349
REMARK  145  A    between atoms: _352  and  _354
REMARK  146  A    between atoms: _354  and  _355
REMARK  147  A    between atoms: _354  and  _357
REMARK  148  A    between atoms: _360  and  _362
REMARK  149  A    between atoms: _362  and  _363
REMARK  150  A    between atoms: _362  and  _365
REMARK  151  A    between atoms: _365  and  _366
REMARK  152  A    between atoms: _369  and  _371
REMARK  153  A    between atoms: _371  and  _372
REMARK  154  A    between atoms: _371  and  _374
REMARK  155  A    between atoms: _374  and  _375
REMARK  156  A    between atoms: _380  and  _382
REMARK  157  A    between atoms: _382  and  _383
REMARK  158  A    between atoms: _382  and  _385
REMARK  159  A    between atoms: _385  and  _386
REMARK  160  A    between atoms: _389  and  _391
REMARK  161  A    between atoms: _391  and  _392
REMARK  162  A    between atoms: _391  and  _394
REMARK  163  A    between atoms: _394  and  _395
REMARK  164  A    between atoms: _395  and  _396
REMARK  165  A    between atoms: _398  and  _400
REMARK  166  A    between atoms: _400  and  _401
REMARK  167  A    between atoms: _403  and  _405
REMARK  168  A    between atoms: _405  and  _406
REMARK  169  A    between atoms: _405  and  _408
REMARK  170  A    between atoms: _408  and  _409
REMARK  171  A    between atoms: _412  and  _414
REMARK  172  A    between atoms: _414  and  _415
REMARK  173  A    between atoms: _414  and  _417
REMARK  174  A    between atoms: _417  and  _418
REMARK  175  A    between atoms: _423  and  _424
REMARK  176  A    between atoms: _426  and  _428
REMARK  177  A    between atoms: _428  and  _429
REMARK  178  A    between atoms: _428  and  _431
REMARK  179  A    between atoms: _431  and  _432
REMARK  180  A    between atoms: _435  and  _437
REMARK  181  A    between atoms: _437  and  _438
REMARK  182  A    between atoms: _437  and  _440
REMARK  183  A    between atoms: _440  and  _441
REMARK  184  A    between atoms: _444  and  _446
REMARK  185  A    between atoms: _446  and  _447
REMARK  186  A    between atoms: _446  and  _449
REMARK  187  A    between atoms: _449  and  _450
REMARK  188  A    between atoms: _453  and  _455
REMARK  189  A    between atoms: _455  and  _456
REMARK  190  A    between atoms: _455  and  _458
REMARK  191  A    between atoms: _458  and  _459
REMARK  192  A    between atoms: _464  and  _466
REMARK  193  A    between atoms: _466  and  _467
REMARK  194  A    between atoms: _466  and  _469
REMARK  195  A    between atoms: _469  and  _470
REMARK  196  A    between atoms: _470  and  _471
REMARK  197  A    between atoms: _471  and  _472
REMARK  198  A    between atoms: _481  and  _483
REMARK  199  A    between atoms: _483  and  _484
REMARK  200  A    between atoms: _483  and  _486
REMARK  201  A    between atoms: _486  and  _487
REMARK  202  A    between atoms: _490  and  _492
REMARK  203  A    between atoms: _492  and  _493
REMARK  204  A    between atoms: _492  and  _495
REMARK  205  A    between atoms: _495  and  _496
REMARK  206  A    between atoms: _499  and  _501
REMARK  207  A    between atoms: _501  and  _502
REMARK  208  A    between atoms: _501  and  _504
REMARK  209  A    between atoms: _504  and  _505
REMARK  210  A    between atoms: _507  and  _509
REMARK  211  A    between atoms: _509  and  _510
REMARK  212  A    between atoms: _509  and  _512
REMARK  213  A    between atoms: _512  and  _513
REMARK  214  A    between atoms: _518  and  _520
REMARK  215  A    between atoms: _520  and  _521
REMARK  216  A    between atoms: _524  and  _526
REMARK  217  A    between atoms: _526  and  _527
REMARK  218  A    between atoms: _526  and  _529
REMARK  219  A    between atoms: _529  and  _530
REMARK  220  A    between atoms: _530  and  _531
REMARK  221  A    between atoms: _531  and  _532
REMARK  222  A    between atoms: _532  and  _533
REMARK  223  A    between atoms: _537  and  _539
REMARK  224  A    between atoms: _539  and  _540
REMARK  225  A    between atoms: _539  and  _542
REMARK  226  A    between atoms: _542  and  _543
REMARK  227  A    between atoms: _546  and  _548
REMARK  228  A    between atoms: _548  and  _549
REMARK  229  A    between atoms: _548  and  _551
REMARK  230  A    between atoms: _551  and  _552
REMARK  231  A    between atoms: _555  and  _557
REMARK  232  A    between atoms: _557  and  _558
REMARK  233  A    between atoms: _557  and  _560
REMARK  234  A    between atoms: _560  and  _561
REMARK  235  A    between atoms: _564  and  _566
REMARK  236  A    between atoms: _566  and  _567
REMARK  237  A    between atoms: _566  and  _569
REMARK  238  A    between atoms: _569  and  _570
REMARK  239  A    between atoms: _576  and  _578
REMARK  240  A    between atoms: _578  and  _579
REMARK  241  A    between atoms: _581  and  _583
REMARK  242  A    between atoms: _583  and  _584
REMARK  243  A    between atoms: _583  and  _586
REMARK  244  A    between atoms: _586  and  _587
REMARK  245  A    between atoms: _590  and  _592
REMARK  246  A    between atoms: _592  and  _593
REMARK  247  A    between atoms: _596  and  _598
REMARK  248  A    between atoms: _598  and  _599
REMARK  249  A    between atoms: _598  and  _601
REMARK  250  A    between atoms: _601  and  _602
REMARK  251  A    between atoms: _607  and  _609
REMARK  252  A    between atoms: _609  and  _610
REMARK  253  A    between atoms: _609  and  _612
REMARK  254  A    between atoms: _612  and  _613
REMARK                            x       y       z     vdW  Elec       q    Type
REMARK                         _______ _______ _______ _____ _____    ______ ____
ROOT
ATOM      1  CG  TYR A   1      14.265  -1.733  41.320  0.00  0.00    -0.020 A 
ATOM      2  CD2 TYR A   1      13.112  -2.079  42.036  0.00  0.00    -0.001 A 
ATOM      3  CE2 TYR A   1      12.492  -1.164  42.889  0.00  0.00    +0.036 A 
ATOM      4  CZ  TYR A   1      13.037   0.106  43.022  0.00  0.00    +0.134 A 
ATOM      5  CE1 TYR A   1      14.155   0.456  42.306  0.00  0.00    +0.036 A 
ATOM      6  CD1 TYR A   1      14.762  -0.450  41.483  0.00  0.00    -0.001 A 
ENDROOT
BRANCH   4   7
ATOM      7  OH  TYR A   1      12.502   1.063  43.862  0.00  0.00    -0.506 OA
ATOM      8  HH  TYR A   1      11.706   0.692  44.318  0.00  0.00    +0.292 HD
ENDBRANCH   4   7
BRANCH   1   9
ATOM      9  CB  TYR A   1      14.956  -2.724  40.369  0.00  0.00    +0.051 C 
BRANCH   9  10
ATOM     10  CA  TYR A   1      15.770  -3.874  41.057  0.00  0.00    +0.137 C 
BRANCH  10  11
ATOM     11  N   TYR A   1      16.976  -3.379  41.709  0.00  0.00    -0.239 NA
ATOM     12  H   TYR A   1      17.564  -2.694  41.192  0.00  0.00    +0.142 HD
ENDBRANCH  10  11
BRANCH  10  13
ATOM     13  C   TYR A   1      16.063  -4.938  39.994  0.00  0.00    +0.224 C 
ATOM     14  O   TYR A   1      15.138  -5.561  39.492  0.00  0.00    -0.287 OA
ENDBRANCH  10  13
ENDBRANCH   9  10
ENDBRANCH   1   9
TORSDOF 5
REMARK  Name = ../refined-set-2016/2baj/2baj_pocket.pdb
REMARK  254 active torsions:
REMARK  status: ('A' for Active; 'I' for Inactive)
REMARK    1  A    between atoms: _1  and  _3
REMARK    2  A    between atoms: _3  and  _4
REMARK    3  A    between atoms: _3  and  _6
REMARK    4  A    between atoms: _6  and  _7
REMARK    5  A    between atoms: _17  and  _19
REMARK    6  A    between atoms: _19  and  _20
REMARK    7  A    between atoms: _19  and  _22
REMARK    8  A    between atoms: _25  and  _27
REMARK    9  A    between atoms: _27  and  _28
REMARK   10  A    between atoms: _27  and  _30
REMARK   11  A    between atoms: _30  and  _31
REMARK   12  A    between atoms: _36  and  _37
REMARK   13  A    between atoms: _39  and  _41
REMARK   14  A    between atoms: _41  and  _42
REMARK   15  A    between atoms: _41  and  _44
REMARK   16  A    between atoms: _44  and  _45
REMARK   17  A    between atoms: _47  and  _49
REMARK   18  A    between atoms: _49  and  _50
REMARK   19  A    between atoms: _49  and  _52
REMARK   20  A    between atoms: _55  and  _57
REMARK   21  A    between atoms: _57  and  _58
REMARK   22  A    between atoms: _57  and  _60
REMARK   23  A    between atoms: _62  and  _64
REMARK   24  A    between atoms: _64  and  _65
REMARK   25  A    between atoms: _68  and  _70
REMARK   26  A    between atoms: _70  and  _71
REMARK   27  A    between atoms: _70  and  _73
REMARK   28  A    between atoms: _76  and  _78
REMARK   29  A    between atoms: _78  and  _79
REMARK   30  A    between atoms: _82  and  _84
REMARK   31  A    between atoms: _84  and  _85
REMARK   32  A    between atoms: _84  and  _87
REMARK   33  A    between atoms: _90  and  _92
REMARK   34  A    between atoms: _92  and  _93
REMARK   35  A    between atoms: _92  and  _95
REMARK   36  A    between atoms: _95  and  _96
REMARK   37  A    between atoms: _96  and  _97
REMARK   38  A    between atoms: _97  and  _98
REMARK   39  A    between atoms: _98  and  _99
REMARK   40  A    between atoms: _103  and  _105
REMARK   41  A    between atoms: _105  and  _106
REMARK   42  A    between atoms: _105  and  _108
REMARK   43  A    between atoms: _108  and  _109
REMARK   44  A    between atoms: _109  and  _110
REMARK   45  A    between atoms: _110  and  _111
REMARK   46  A    between atoms: _111  and  _112
REMARK   47  A    between atoms: _116  and  _118
REMARK   48  A    between atoms: _118  and  _119
REMARK   49  A    between atoms: _118  and  _121
REMARK   50  A    between atoms: _121  and  _122
REMARK   51  A    between atoms: _125  and  _127
REMARK   52  A    between atoms: _127  and  _128
REMARK   53  A    between atoms: _127  and  _130
REMARK   54  A    between atoms: _130  and  _131
REMARK   55  A    between atoms: _131  and  _132
REMARK   56  A    between atoms: _132  and  _133
REMARK   57  A    between atoms: _133  and  _134
REMARK   58  A    between atoms: _138  and  _140
REMARK   59  A    between atoms: _140  and  _141
REMARK   60  A    between atoms: _140  and  _143
REMARK   61  A    between atoms: _143  and  _144
REMARK   62  A    between atoms: _144  and  _145
REMARK   63  A    between atoms: _145  and  _146
REMARK   64  A    between atoms: _155  and  _157
REMARK   65  A    between atoms: _157  and  _158
REMARK   66  A    between atoms: _157  and  _160
REMARK   67  A    between atoms: _160  and  _161
REMARK   68  A    between atoms: _164  and  _166
REMARK   69  A    between atoms: _166  and  _167
REMARK   70  A    between atoms: _166  and  _169
REMARK   71  A    between atoms: _169  and  _170
REMARK   72  A    between atoms: _175  and  _176
REMARK   73  A    between atoms: _178  and  _180
REMARK   74  A    between atoms: _180  and  _181
REMARK   75  A    between atoms: _180  and  _183
REMARK   76  A    between atoms: _183  and  _184
REMARK   77  A    between atoms: _184  and  _185
REMARK   78  A    between atoms: _185  and  _186
REMARK   79  A    between atoms: _195  and  _197
REMARK   80  A    between atoms: _197  and  _198
REMARK   81  A    between atoms: _197  and  _200
REMARK   82  A    between atoms: _200  and  _201
REMARK   83  A    between atoms: _201  and  _202
REMARK   84  A    between atoms: _205  and  _207
REMARK   85  A    between atoms: _207  and  _208
REMARK   86  A    between atoms: _207  and  _210
REMARK   87  A    between atoms: _210  and  _211
REMARK   88  A    between atoms: _214  and  _216
REMARK   89  A    between atoms: _216  and  _217
REMARK   90  A    between atoms: _216  and  _219
REMARK   91  A    between atoms: _219  and  _220
REMARK   92  A    between atoms: _220  and  _221
REMARK   93  A    between atoms: _221  and  _222
REMARK   94  A    between atoms: _231  and  _233
REMARK   95  A    between atoms: _233  and  _234
REMARK   96  A    between atoms: _233  and  _236
REMARK   97  A    between atoms: _236  and  _237
REMARK   98  A    between atoms: _240  and  _242
REMARK   99  A    between atoms: _242  and  _243
REMARK  100  A    between atoms: _242  and  _245
REMARK  101  A    between atoms: _245  and  _246
REMARK  102  A    between atoms: _249  and  _251
REMARK  103  A    between atoms: _251  and  _252
REMARK  104  A    between atoms: _251  and  _254
REMARK  105  A    between atoms: _254  and  _255
REMARK  106  A    between atoms: _260  and  _262
REMARK  107  A    between atoms: _262  and  _263
REMARK  108  A    between atoms: _262  and  _265
REMARK  109  A    between atoms: _265  and  _266
REMARK  110  A    between atoms: _266  and  _267
REMARK  111  A    between atoms: _269  and  _271
REMARK  112  A    between atoms: _271  and  _272
REMARK  113  A    between atoms: _271  and  _274
REMARK  114  A    between atoms: _274  and  _275
REMARK  115  A    between atoms: _280  and  _282
REMARK  116  A    between atoms: _282  and  _283
REMARK  117  A    between atoms: _282  and  _285
REMARK  118  A    between atoms: _288  and  _290
REMARK  119  A    between atoms: _290  and  _291
REMARK  120  A    between atoms: _290  and  _293
REMARK  121  A    between atoms: _293  and  _294
REMARK  122  A    between atoms: _297  and  _299
REMARK  123  A    between atoms: _299  and  _300
REMARK  124  A    between atoms: _302  and  _304
REMARK  125  A    between atoms: _304  and  _305
REMARK  126  A    between atoms: _304  and  _307
REMARK  127  A    between atoms: _307  and  _308
REMARK  128  A    between atoms: _311  and  _313
REMARK  129  A    between atoms: _313  and  _314
REMARK  130  A    between atoms: _313  and  _316
REMARK  131  A    between atoms: _316  and  _317
REMARK  132  A    between atoms: _320  and  _322
REMARK  133  A    between atoms: _322  and  _323
REMARK  134  A    between atoms: _322  and  _325
REMARK  135  A    between atoms: _325  and  _326
REMARK  136  A    between atoms: _329  and  _331
REMARK  137  A    between atoms: _331  and  _332
REMARK  138  A    between atoms: _331  and  _334
REMARK  139  A    between atoms: _334  and  _335
REMARK  140  A    between atoms: _340  and  _341
REMARK  141  A    between atoms: _343  and  _345
REMARK  142  A    between atoms: _345  and  _346
REMARK  143  A    between atoms: _345  and  _348
REMARK  144  A    between atoms: _348  and  _349
REMARK  145  A    between atoms: _352  and  _354
REMARK  146  A    between atoms: _354  and  _355
REMARK  147  A    between atoms: _354  and  _357
REMARK  148  A    between atoms: _360  and  _362
REMARK  149  A    between atoms: _362  and  _363
REMARK  150  A    between atoms: _362  and  _365
REMARK  151  A    between atoms: _365  and  _366
REMARK  152  A    between atoms: _369  and  _371
REMARK  153  A    between atoms: _371  and  _372
REMARK  154  A    between atoms: _371  and  _374
REMARK  155  A    between atoms: _374  and  _375
REMARK  156  A    between atoms: _380  and  _382
REMARK  157  A    between atoms: _382  and  _383
REMARK  158  A    between atoms: _382  and  _385
REMARK  159  A    between atoms: _385  and  _386
REMARK  160  A    between atoms: _389  and  _391
REMARK  161  A    between atoms: _391  and  _392
REMARK  162  A    between atoms: _391  and  _394
REMARK  163  A    between atoms: _394  and  _395
REMARK  164  A    between atoms: _395  and  _396
REMARK  165  A    between atoms: _398  and  _400
REMARK  166  A    between atoms: _400  and  _401
REMARK  167  A    between atoms: _403  and  _405
REMARK  168  A    between atoms: _405  and  _406
REMARK  169  A    between atoms: _405  and  _408
REMARK  170  A    between atoms: _408  and  _409
REMARK  171  A    between atoms: _412  and  _414
REMARK  172  A    between atoms: _414  and  _415
REMARK  173  A    between atoms: _414  and  _417
REMARK  174  A    between atoms: _417  and  _418
REMARK  175  A    between atoms: _423  and  _424
REMARK  176  A    between atoms: _426  and  _428
REMARK  177  A    between atoms: _428  and  _429
REMARK  178  A    between atoms: _428  and  _431
REMARK  179  A    between atoms: _431  and  _432
REMARK  180  A    between atoms: _435  and  _437
REMARK  181  A    between atoms: _437  and  _438
REMARK  182  A    between atoms: _437  and  _440
REMARK  183  A    between atoms: _440  and  _441
REMARK  184  A    between atoms: _444  and  _446
REMARK  185  A    between atoms: _446  and  _447
REMARK  186  A    between atoms: _446  and  _449
REMARK  187  A    between atoms: _449  and  _450
REMARK  188  A    between atoms: _453  and  _455
REMARK  189  A    between atoms: _455  and  _456
REMARK  190  A    between atoms: _455  and  _458
REMARK  191  A    between atoms: _458  and  _459
REMARK  192  A    between atoms: _464  and  _466
REMARK  193  A    between atoms: _466  and  _467
REMARK  194  A    between atoms: _466  and  _469
REMARK  195  A    between atoms: _469  and  _470
REMARK  196  A    between atoms: _470  and  _471
REMARK  197  A    between atoms: _471  and  _472
REMARK  198  A    between atoms: _481  and  _483
REMARK  199  A    between atoms: _483  and  _484
REMARK  200  A    between atoms: _483  and  _486
REMARK  201  A    between atoms: _486  and  _487
REMARK  202  A    between atoms: _490  and  _492
REMARK  203  A    between atoms: _492  and  _493
REMARK  204  A    between atoms: _492  and  _495
REMARK  205  A    between atoms: _495  and  _496
REMARK  206  A    between atoms: _499  and  _501
REMARK  207  A    between atoms: _501  and  _502
REMARK  208  A    between atoms: _501  and  _504
REMARK  209  A    between atoms: _504  and  _505
REMARK  210  A    between atoms: _507  and  _509
REMARK  211  A    between atoms: _509  and  _510
REMARK  212  A    between atoms: _509  and  _512
REMARK  213  A    between atoms: _512  and  _513
REMARK  214  A    between atoms: _518  and  _520
REMARK  215  A    between atoms: _520  and  _521
REMARK  216  A    between atoms: _524  and  _526
REMARK  217  A    between atoms: _526  and  _527
REMARK  218  A    between atoms: _526  and  _529
REMARK  219  A    between atoms: _529  and  _530
REMARK  220  A    between atoms: _530  and  _531
REMARK  221  A    between atoms: _531  and  _532
REMARK  222  A    between atoms: _532  and  _533
REMARK  223  A    between atoms: _537  and  _539
REMARK  224  A    between atoms: _539  and  _540
REMARK  225  A    between atoms: _539  and  _542
REMARK  226  A    between atoms: _542  and  _543
REMARK  227  A    between atoms: _546  and  _548
REMARK  228  A    between atoms: _548  and  _549
REMARK  229  A    between atoms: _548  and  _551
REMARK  230  A    between atoms: _551  and  _552
REMARK  231  A    between atoms: _555  and  _557
REMARK  232  A    between atoms: _557  and  _558
REMARK  233  A    between atoms: _557  and  _560
REMARK  234  A    between atoms: _560  and  _561
REMARK  235  A    between atoms: _564  and  _566
REMARK  236  A    between atoms: _566  and  _567
REMARK  237  A    between atoms: _566  and  _569
REMARK  238  A    between atoms: _569  and  _570
REMARK  239  A    between atoms: _576  and  _578
REMARK  240  A    between atoms: _578  and  _579
REMARK  241  A    between atoms: _581  and  _583
REMARK  242  A    between atoms: _583  and  _584
REMARK  243  A    between atoms: _583  and  _586
REMARK  244  A    between atoms: _586  and  _587
REMARK  245  A    between atoms: _590  and  _592
REMARK  246  A    between atoms: _592  and  _593
REMARK  247  A    between atoms: _596  and  _598
REMARK  248  A    between atoms: _598  and  _599
REMARK  249  A    between atoms: _598  and  _601
REMARK  250  A    between atoms: _601  and  _602
REMARK  251  A    between atoms: _607  and  _609
REMARK  252  A    between atoms: _609  and  _610
REMARK  253  A    between atoms: _609  and  _612
REMARK  254  A    between atoms: _612  and  _613
REMARK                            x       y       z     vdW  Elec       q    Type
REMARK                         _______ _______ _______ _____ _____    ______ ____
ROOT
ATOM      1  C   VAL A   2      22.355  -7.703  32.185  0.00  0.00    +0.241 C 
ATOM      2  O   VAL A   2      23.411  -7.281  32.558  0.00  0.00    -0.273 OA
ATOM      3  N   CYS A   3      22.227  -8.734  31.342  0.00  0.00    -0.296 N 
ATOM      4  H   CYS A   3      21.284  -9.160  31.234  0.00  0.00    +0.150 HD
ENDROOT
BRANCH   1   5
ATOM      5  CA  VAL A   2      21.105  -7.053  32.694  0.00  0.00    +0.148 C 
BRANCH   5   8
ATOM      6  C   SER A   1      20.240  -7.264  34.919  0.00  0.00    +0.241 C 
ATOM      7  O   SER A   1      19.188  -7.693  34.465  0.00  0.00    -0.274 OA
ATOM      8  N   VAL A   2      21.222  -6.888  34.140  0.00  0.00    -0.297 N 
ATOM      9  H   VAL A   2      22.083  -6.473  34.550  0.00  0.00    +0.150 HD
BRANCH   6  10
ATOM     10  CA  SER A   1      20.489  -7.153  36.394  0.00  0.00    +0.174 C 
BRANCH  10  11
ATOM     11  N   SER A   1      19.223  -7.050  37.096  0.00  0.00    -0.236 NA
ATOM     12  H   SER A   1      18.478  -7.742  36.878  0.00  0.00    +0.142 HD
ENDBRANCH  10  11
BRANCH  10  13
ATOM     13  CB  SER A   1      21.199  -8.420  36.828  0.00  0.00    +0.163 C 
BRANCH  13  14
ATOM     14  OG  SER A   1      21.778  -8.223  38.060  0.00  0.00    -0.380 OA
ATOM     15  H   SER A   1      22.432  -7.482  38.001  0.00  0.00    +0.211 HD
ENDBRANCH  13  14
ENDBRANCH  10  13
ENDBRANCH   6  10
ENDBRANCH   5   8
BRANCH   5  16
ATOM     16  CB  VAL A   2      20.900  -5.702  32.004  0.00  0.00    +0.027 C 
ATOM     17  CG2 VAL A   2      19.659  -5.022  32.530  0.00  0.00    +0.002 C 
ATOM     18  CG1 VAL A   2      20.830  -5.857  30.452  0.00  0.00    +0.002 C 
ENDBRANCH   5  16
ENDBRANCH   1   5
BRANCH   3  19
ATOM     19  CA  CYS A   3      23.343  -9.309  30.551  0.00  0.00    +0.160 C 
BRANCH  19  20
ATOM     20  C   CYS A   3      23.095  -9.152  29.075  0.00  0.00    +0.242 C 
ATOM     21  O   CYS A   3      21.952  -9.215  28.633  0.00  0.00    -0.273 OA
ATOM     22  N   ALA A   4      24.163  -8.944  28.308  0.00  0.00    -0.298 N 
ATOM     23  H   ALA A   4      25.029  -8.559  28.736  0.00  0.00    +0.150 HD
BRANCH  22  24
ATOM     24  CA  ALA A   4      24.145  -9.242  26.892  0.00  0.00    +0.137 C 
ATOM     25  CB  ALA A   4      25.262  -8.527  26.160  0.00  0.00    +0.030 C 
BRANCH  24  26
ATOM     26  C   ALA A   4      24.300 -10.727  26.712  0.00  0.00    +0.227 C 
ATOM     27  O   ALA A   4      24.763 -11.415  27.603  0.00  0.00    -0.286 OA
ENDBRANCH  24  26
ENDBRANCH  22  24
ENDBRANCH  19  20
BRANCH  19  28
ATOM     28  CB  CYS A   3      23.484 -10.812  30.813  0.00  0.00    +0.098 C 
ATOM     29  SG  CYS A   3      24.093 -11.225  32.493  0.00  0.00    -0.080 S 
ENDBRANCH  19  28
ENDBRANCH   3  19
TORSDOF 12
REMARK  Name = ../refined-set-2016/2baj/2baj_pocket.pdb
REMARK  254 active torsions:
REMARK  status: ('A' for Active; 'I' for Inactive)
REMARK    1  A    between atoms: _1  and  _3
REMARK    2  A    between atoms: _3  and  _4
REMARK    3  A    between atoms: _3  and  _6
REMARK    4  A    between atoms: _6  and  _7
REMARK    5  A    between atoms: _17  and  _19
REMARK    6  A    between atoms: _19  and  _20
REMARK    7  A    between atoms: _19  and  _22
REMARK    8  A    between atoms: _25  and  _27
REMARK    9  A    between atoms: _27  and  _28
REMARK   10  A    between atoms: _27  and  _30
REMARK   11  A    between atoms: _30  and  _31
REMARK   12  A    between atoms: _36  and  _37
REMARK   13  A    between atoms: _39  and  _41
REMARK   14  A    between atoms: _41  and  _42
REMARK   15  A    between atoms: _41  and  _44
REMARK   16  A    between atoms: _44  and  _45
REMARK   17  A    between atoms: _47  and  _49
REMARK   18  A    between atoms: _49  and  _50
REMARK   19  A    between atoms: _49  and  _52
REMARK   20  A    between atoms: _55  and  _57
REMARK   21  A    between atoms: _57  and  _58
REMARK   22  A    between atoms: _57  and  _60
REMARK   23  A    between atoms: _62  and  _64
REMARK   24  A    between atoms: _64  and  _65
REMARK   25  A    between atoms: _68  and  _70
REMARK   26  A    between atoms: _70  and  _71
REMARK   27  A    between atoms: _70  and  _73
REMARK   28  A    between atoms: _76  and  _78
REMARK   29  A    between atoms: _78  and  _79
REMARK   30  A    between atoms: _82  and  _84
REMARK   31  A    between atoms: _84  and  _85
REMARK   32  A    between atoms: _84  and  _87
REMARK   33  A    between atoms: _90  and  _92
REMARK   34  A    between atoms: _92  and  _93
REMARK   35  A    between atoms: _92  and  _95
REMARK   36  A    between atoms: _95  and  _96
REMARK   37  A    between atoms: _96  and  _97
REMARK   38  A    between atoms: _97  and  _98
REMARK   39  A    between atoms: _98  and  _99
REMARK   40  A    between atoms: _103  and  _105
REMARK   41  A    between atoms: _105  and  _106
REMARK   42  A    between atoms: _105  and  _108
REMARK   43  A    between atoms: _108  and  _109
REMARK   44  A    between atoms: _109  and  _110
REMARK   45  A    between atoms: _110  and  _111
REMARK   46  A    between atoms: _111  and  _112
REMARK   47  A    between atoms: _116  and  _118
REMARK   48  A    between atoms: _118  and  _119
REMARK   49  A    between atoms: _118  and  _121
REMARK   50  A    between atoms: _121  and  _122
REMARK   51  A    between atoms: _125  and  _127
REMARK   52  A    between atoms: _127  and  _128
REMARK   53  A    between atoms: _127  and  _130
REMARK   54  A    between atoms: _130  and  _131
REMARK   55  A    between atoms: _131  and  _132
REMARK   56  A    between atoms: _132  and  _133
REMARK   57  A    between atoms: _133  and  _134
REMARK   58  A    between atoms: _138  and  _140
REMARK   59  A    between atoms: _140  and  _141
REMARK   60  A    between atoms: _140  and  _143
REMARK   61  A    between atoms: _143  and  _144
REMARK   62  A    between atoms: _144  and  _145
REMARK   63  A    between atoms: _145  and  _146
REMARK   64  A    between atoms: _155  and  _157
REMARK   65  A    between atoms: _157  and  _158
REMARK   66  A    between atoms: _157  and  _160
REMARK   67  A    between atoms: _160  and  _161
REMARK   68  A    between atoms: _164  and  _166
REMARK   69  A    between atoms: _166  and  _167
REMARK   70  A    between atoms: _166  and  _169
REMARK   71  A    between atoms: _169  and  _170
REMARK   72  A    between atoms: _175  and  _176
REMARK   73  A    between atoms: _178  and  _180
REMARK   74  A    between atoms: _180  and  _181
REMARK   75  A    between atoms: _180  and  _183
REMARK   76  A    between atoms: _183  and  _184
REMARK   77  A    between atoms: _184  and  _185
REMARK   78  A    between atoms: _185  and  _186
REMARK   79  A    between atoms: _195  and  _197
REMARK   80  A    between atoms: _197  and  _198
REMARK   81  A    between atoms: _197  and  _200
REMARK   82  A    between atoms: _200  and  _201
REMARK   83  A    between atoms: _201  and  _202
REMARK   84  A    between atoms: _205  and  _207
REMARK   85  A    between atoms: _207  and  _208
REMARK   86  A    between atoms: _207  and  _210
REMARK   87  A    between atoms: _210  and  _211
REMARK   88  A    between atoms: _214  and  _216
REMARK   89  A    between atoms: _216  and  _217
REMARK   90  A    between atoms: _216  and  _219
REMARK   91  A    between atoms: _219  and  _220
REMARK   92  A    between atoms: _220  and  _221
REMARK   93  A    between atoms: _221  and  _222
REMARK   94  A    between atoms: _231  and  _233
REMARK   95  A    between atoms: _233  and  _234
REMARK   96  A    between atoms: _233  and  _236
REMARK   97  A    between atoms: _236  and  _237
REMARK   98  A    between atoms: _240  and  _242
REMARK   99  A    between atoms: _242  and  _243
REMARK  100  A    between atoms: _242  and  _245
REMARK  101  A    between atoms: _245  and  _246
REMARK  102  A    between atoms: _249  and  _251
REMARK  103  A    between atoms: _251  and  _252
REMARK  104  A    between atoms: _251  and  _254
REMARK  105  A    between atoms: _254  and  _255
REMARK  106  A    between atoms: _260  and  _262
REMARK  107  A    between atoms: _262  and  _263
REMARK  108  A    between atoms: _262  and  _265
REMARK  109  A    between atoms: _265  and  _266
REMARK  110  A    between atoms: _266  and  _267
REMARK  111  A    between atoms: _269  and  _271
REMARK  112  A    between atoms: _271  and  _272
REMARK  113  A    between atoms: _271  and  _274
REMARK  114  A    between atoms: _274  and  _275
REMARK  115  A    between atoms: _280  and  _282
REMARK  116  A    between atoms: _282  and  _283
REMARK  117  A    between atoms: _282  and  _285
REMARK  118  A    between atoms: _288  and  _290
REMARK  119  A    between atoms: _290  and  _291
REMARK  120  A    between atoms: _290  and  _293
REMARK  121  A    between atoms: _293  and  _294
REMARK  122  A    between atoms: _297  and  _299
REMARK  123  A    between atoms: _299  and  _300
REMARK  124  A    between atoms: _302  and  _304
REMARK  125  A    between atoms: _304  and  _305
REMARK  126  A    between atoms: _304  and  _307
REMARK  127  A    between atoms: _307  and  _308
REMARK  128  A    between atoms: _311  and  _313
REMARK  129  A    between atoms: _313  and  _314
REMARK  130  A    between atoms: _313  and  _316
REMARK  131  A    between atoms: _316  and  _317
REMARK  132  A    between atoms: _320  and  _322
REMARK  133  A    between atoms: _322  and  _323
REMARK  134  A    between atoms: _322  and  _325
REMARK  135  A    between atoms: _325  and  _326
REMARK  136  A    between atoms: _329  and  _331
REMARK  137  A    between atoms: _331  and  _332
REMARK  138  A    between atoms: _331  and  _334
REMARK  139  A    between atoms: _334  and  _335
REMARK  140  A    between atoms: _340  and  _341
REMARK  141  A    between atoms: _343  and  _345
REMARK  142  A    between atoms: _345  and  _346
REMARK  143  A    between atoms: _345  and  _348
REMARK  144  A    between atoms: _348  and  _349
REMARK  145  A    between atoms: _352  and  _354
REMARK  146  A    between atoms: _354  and  _355
REMARK  147  A    between atoms: _354  and  _357
REMARK  148  A    between atoms: _360  and  _362
REMARK  149  A    between atoms: _362  and  _363
REMARK  150  A    between atoms: _362  and  _365
REMARK  151  A    between atoms: _365  and  _366
REMARK  152  A    between atoms: _369  and  _371
REMARK  153  A    between atoms: _371  and  _372
REMARK  154  A    between atoms: _371  and  _374
REMARK  155  A    between atoms: _374  and  _375
REMARK  156  A    between atoms: _380  and  _382
REMARK  157  A    between atoms: _382  and  _383
REMARK  158  A    between atoms: _382  and  _385
REMARK  159  A    between atoms: _385  and  _386
REMARK  160  A    between atoms: _389  and  _391
REMARK  161  A    between atoms: _391  and  _392
REMARK  162  A    between atoms: _391  and  _394
REMARK  163  A    between atoms: _394  and  _395
REMARK  164  A    between atoms: _395  and  _396
REMARK  165  A    between atoms: _398  and  _400
REMARK  166  A    between atoms: _400  and  _401
REMARK  167  A    between atoms: _403  and  _405
REMARK  168  A    between atoms: _405  and  _406
REMARK  169  A    between atoms: _405  and  _408
REMARK  170  A    between atoms: _408  and  _409
REMARK  171  A    between atoms: _412  and  _414
REMARK  172  A    between atoms: _414  and  _415
REMARK  173  A    between atoms: _414  and  _417
REMARK  174  A    between atoms: _417  and  _418
REMARK  175  A    between atoms: _423  and  _424
REMARK  176  A    between atoms: _426  and  _428
REMARK  177  A    between atoms: _428  and  _429
REMARK  178  A    between atoms: _428  and  _431
REMARK  179  A    between atoms: _431  and  _432
REMARK  180  A    between atoms: _435  and  _437
REMARK  181  A    between atoms: _437  and  _438
REMARK  182  A    between atoms: _437  and  _440
REMARK  183  A    between atoms: _440  and  _441
REMARK  184  A    between atoms: _444  and  _446
REMARK  185  A    between atoms: _446  and  _447
REMARK  186  A    between atoms: _446  and  _449
REMARK  187  A    between atoms: _449  and  _450
REMARK  188  A    between atoms: _453  and  _455
REMARK  189  A    between atoms: _455  and  _456
REMARK  190  A    between atoms: _455  and  _458
REMARK  191  A    between atoms: _458  and  _459
REMARK  192  A    between atoms: _464  and  _466
REMARK  193  A    between atoms: _466  and  _467
REMARK  194  A    between atoms: _466  and  _469
REMARK  195  A    between atoms: _469  and  _470
REMARK  196  A    between atoms: _470  and  _471
REMARK  197  A    between atoms: _471  and  _472
REMARK  198  A    between atoms: _481  and  _483
REMARK  199  A    between atoms: _483  and  _484
REMARK  200  A    between atoms: _483  and  _486
REMARK  201  A    between atoms: _486  and  _487
REMARK  202  A    between atoms: _490  and  _492
REMARK  203  A    between atoms: _492  and  _493
REMARK  204  A    between atoms: _492  and  _495
REMARK  205  A    between atoms: _495  and  _496
REMARK  206  A    between atoms: _499  and  _501
REMARK  207  A    between atoms: _501  and  _502
REMARK  208  A    between atoms: _501  and  _504
REMARK  209  A    between atoms: _504  and  _505
REMARK  210  A    between atoms: _507  and  _509
REMARK  211  A    between atoms: _509  and  _510
REMARK  212  A    between atoms: _509  and  _512
REMARK  213  A    between atoms: _512  and  _513
REMARK  214  A    between atoms: _518  and  _520
REMARK  215  A    between atoms: _520  and  _521
REMARK  216  A    between atoms: _524  and  _526
REMARK  217  A    between atoms: _526  and  _527
REMARK  218  A    between atoms: _526  and  _529
REMARK  219  A    between atoms: _529  and  _530
REMARK  220  A    between atoms: _530  and  _531
REMARK  221  A    between atoms: _531  and  _532
REMARK  222  A    between atoms: _532  and  _533
REMARK  223  A    between atoms: _537  and  _539
REMARK  224  A    between atoms: _539  and  _540
REMARK  225  A    between atoms: _539  and  _542
REMARK  226  A    between atoms: _542  and  _543
REMARK  227  A    between atoms: _546  and  _548
REMARK  228  A    between atoms: _548  and  _549
REMARK  229  A    between atoms: _548  and  _551
REMARK  230  A    between atoms: _551  and  _552
REMARK  231  A    between atoms: _555  and  _557
REMARK  232  A    between atoms: _557  and  _558
REMARK  233  A    between atoms: _557  and  _560
REMARK  234  A    between atoms: _560  and  _561
REMARK  235  A    between atoms: _564  and  _566
REMARK  236  A    between atoms: _566  and  _567
REMARK  237  A    between atoms: _566  and  _569
REMARK  238  A    between atoms: _569  and  _570
REMARK  239  A    between atoms: _576  and  _578
REMARK  240  A    between atoms: _578  and  _579
REMARK  241  A    between atoms: _581  and  _583
REMARK  242  A    between atoms: _583  and  _584
REMARK  243  A    between atoms: _583  and  _586
REMARK  244  A    between atoms: _586  and  _587
REMARK  245  A    between atoms: _590  and  _592
REMARK  246  A    between atoms: _592  and  _593
REMARK  247  A    between atoms: _596  and  _598
REMARK  248  A    between atoms: _598  and  _599
REMARK  249  A    between atoms: _598  and  _601
REMARK  250  A    between atoms: _601  and  _602
REMARK  251  A    between atoms: _607  and  _609
REMARK  252  A    between atoms: _609  and  _610
REMARK  253  A    between atoms: _609  and  _612
REMARK  254  A    between atoms: _612  and  _613
REMARK                            x       y       z     vdW  Elec       q    Type
REMARK                         _______ _______ _______ _____ _____    ______ ____
ROOT
ATOM      1  CA  LYS A   4      16.963  -8.489  32.485  0.00  0.00    +0.149 C 
ENDROOT
BRANCH   1   4
ATOM      2  C   VAL A   3      18.314  -9.359  30.629  0.00  0.00    +0.241 C 
ATOM      3  O   VAL A   3      19.381  -9.251  31.245  0.00  0.00    -0.273 OA
ATOM      4  N   LYS A   4      17.124  -9.020  31.134  0.00  0.00    -0.297 N 
ATOM      5  H   LYS A   4      16.278  -9.139  30.541  0.00  0.00    +0.150 HD
BRANCH   2   6
ATOM      6  CA  VAL A   3      18.312  -9.983  29.249  0.00  0.00    +0.149 C 
BRANCH   6   8
ATOM      7  C   ALA A   2      18.946  -8.984  27.086  0.00  0.00    +0.241 C 
ATOM      8  N   VAL A   3      19.233  -9.264  28.360  0.00  0.00    -0.297 N 
ATOM      9  H   VAL A   3      20.152  -8.958  28.740  0.00  0.00    +0.150 HD
ATOM     10  O   ALA A   2      17.877  -9.244  26.579  0.00  0.00    -0.273 OA
BRANCH   7  11
ATOM     11  CA  ALA A   2      19.988  -8.196  26.299  0.00  0.00    +0.149 C 
ATOM     12  CB  ALA A   2      19.805  -6.710  26.537  0.00  0.00    +0.031 C 
BRANCH  11  14
ATOM     13  C   VAL A   1      20.729  -9.191  24.207  0.00  0.00    +0.238 C 
ATOM     14  N   ALA A   2      19.837  -8.485  24.886  0.00  0.00    -0.297 N 
ATOM     15  H   ALA A   2      18.998  -8.125  24.388  0.00  0.00    +0.150 HD
ATOM     16  O   VAL A   1      21.832  -9.493  24.649  0.00  0.00    -0.274 OA
BRANCH  13  17
ATOM     17  CA  VAL A   1      20.277  -9.642  22.836  0.00  0.00    +0.145 C 
BRANCH  17  18
ATOM     18  CB  VAL A   1      19.229 -10.829  23.020  0.00  0.00    +0.025 C 
ATOM     19  CG2 VAL A   1      19.851 -12.006  23.729  0.00  0.00    +0.002 C 
ATOM     20  CG1 VAL A   1      18.623 -11.251  21.670  0.00  0.00    +0.002 C 
ENDBRANCH  17  18
BRANCH  17  21
ATOM     21  N   VAL A   1      21.395 -10.040  22.015  0.00  0.00    -0.238 NA
ATOM     22  H   VAL A   1      22.195 -10.528  22.466  0.00  0.00    +0.142 HD
ENDBRANCH  17  21
ENDBRANCH  13  17
ENDBRANCH  11  14
ENDBRANCH   7  11
ENDBRANCH   6   8
BRANCH   6  23
ATOM     23  CB  VAL A   3      18.731 -11.483  29.413  0.00  0.00    +0.027 C 
ATOM     24  CG2 VAL A   3      17.669 -12.268  30.123  0.00  0.00    +0.002 C 
ATOM     25  CG1 VAL A   3      19.029 -12.107  28.081  0.00  0.00    +0.002 C 
ENDBRANCH   6  23
ENDBRANCH   2   6
ENDBRANCH   1   4
BRANCH   1  26
ATOM     26  C   LYS A   4      16.327  -9.529  33.393  0.00  0.00    +0.241 C 
ATOM     27  N   LYS A   5      17.060  -9.906  34.429  0.00  0.00    -0.297 N 
ATOM     28  H   LYS A   5      18.066  -9.643  34.445  0.00  0.00    +0.150 HD
ATOM     29  O   LYS A   4      15.224 -10.010  33.144  0.00  0.00    -0.273 OA
BRANCH  27  30
ATOM     30  CA  LYS A   5      16.532 -10.663  35.536  0.00  0.00    +0.149 C 
BRANCH  30  31
ATOM     31  C   LYS A   5      16.113  -9.592  36.506  0.00  0.00    +0.241 C 
ATOM     32  O   LYS A   5      16.957  -8.875  37.007  0.00  0.00    -0.273 OA
ATOM     33  N   LEU A   6      14.814  -9.478  36.751  0.00  0.00    -0.298 N 
ATOM     34  H   LEU A   6      14.140  -9.938  36.107  0.00  0.00    +0.150 HD
BRANCH  33  35
ATOM     35  CA  LEU A   6      14.296  -8.726  37.899  0.00  0.00    +0.137 C 
BRANCH  35  36
ATOM     36  C   LEU A   6      14.763  -9.320  39.213  0.00  0.00    +0.227 C 
ATOM     37  O   LEU A   6      14.792 -10.557  39.350  0.00  0.00    -0.286 OA
ENDBRANCH  35  36
BRANCH  35  38
ATOM     38  CB  LEU A   6      12.755  -8.753  37.864  0.00  0.00    +0.028 C 
BRANCH  38  39
ATOM     39  CG  LEU A   6      11.947  -7.690  37.091  0.00  0.00    +0.002 C 
ATOM     40  CD2 LEU A   6      12.592  -6.285  37.256  0.00  0.00    +0.000 C 
ATOM     41  CD1 LEU A   6      11.736  -8.051  35.628  0.00  0.00    +0.000 C 
ENDBRANCH  38  39
ENDBRANCH  35  38
ENDBRANCH  33  35
ENDBRANCH  30  31
BRANCH  30  42
ATOM     42  CB  LYS A   5      17.609 -11.561  36.167  0.00  0.00    +0.029 C 
BRANCH  42  43
ATOM     43  CG  LYS A   5      17.088 -12.484  37.294  0.00  0.00    +0.000 C 
BRANCH  43  44
ATOM     44  CD  LYS A   5      18.168 -13.177  38.071  0.00  0.00    -0.024 C 
BRANCH  44  45
ATOM     45  CE  LYS A   5      17.576 -14.185  39.079  0.00  0.00    -0.086 C 
BRANCH  45  46
ATOM     46  NZ  LYS A   5      18.599 -14.768  40.061  0.00  0.00    +0.380 N 
ATOM     47  HZ1 LYS A   5      18.122 -15.434  40.702  0.00  0.00    -0.089 HD
ATOM     48  HZ2 LYS A   5      19.025 -13.997  40.614  0.00  0.00    -0.089 HD
ATOM     49  HZ3 LYS A   5      19.342 -15.267  39.531  0.00  0.00    -0.089 HD
ENDBRANCH  45  46
ENDBRANCH  44  45
ENDBRANCH  43  44
ENDBRANCH  42  43
ENDBRANCH  30  42
ENDBRANCH  27  30
ENDBRANCH   1  26
BRANCH   1  50
ATOM     50  CB  LYS A   4      16.119  -7.195  32.470  0.00  0.00    +0.029 C 
BRANCH  50  51
ATOM     51  CG  LYS A   4      16.167  -6.374  33.780  0.00  0.00    +0.000 C 
BRANCH  51  52
ATOM     52  CD  LYS A   4      15.667  -4.919  33.543  0.00  0.00    -0.024 C 
BRANCH  52  53
ATOM     53  CE  LYS A   4      14.609  -4.499  34.493  0.00  0.00    -0.086 C 
BRANCH  53  54
ATOM     54  NZ  LYS A   4      14.306  -3.027  34.431  0.00  0.00    +0.380 N 
ATOM     55  HZ1 LYS A   4      13.559  -2.799  35.118  0.00  0.00    -0.089 HD
ATOM     56  HZ2 LYS A   4      15.165  -2.488  34.659  0.00  0.00    -0.089 HD
ATOM     57  HZ3 LYS A   4      13.984  -2.781  33.473  0.00  0.00    -0.089 HD
ENDBRANCH  53  54
ENDBRANCH  52  53
ENDBRANCH  51  52
ENDBRANCH  50  51
ENDBRANCH   1  50
TORSDOF 26
REMARK  Name = ../refined-set-2016/2baj/2baj_pocket.pdb
REMARK  254 active torsions:
REMARK  status: ('A' for Active; 'I' for Inactive)
REMARK    1  A    between atoms: _1  and  _3
REMARK    2  A    between atoms: _3  and  _4
REMARK    3  A    between atoms: _3  and  _6
REMARK    4  A    between atoms: _6  and  _7
REMARK    5  A    between atoms: _17  and  _19
REMARK    6  A    between atoms: _19  and  _20
REMARK    7  A    between atoms: _19  and  _22
REMARK    8  A    between atoms: _25  and  _27
REMARK    9  A    between atoms: _27  and  _28
REMARK   10  A    between atoms: _27  and  _30
REMARK   11  A    between atoms: _30  and  _31
REMARK   12  A    between atoms: _36  and  _37
REMARK   13  A    between atoms: _39  and  _41
REMARK   14  A    between atoms: _41  and  _42
REMARK   15  A    between atoms: _41  and  _44
REMARK   16  A    between atoms: _44  and  _45
REMARK   17  A    between atoms: _47  and  _49
REMARK   18  A    between atoms: _49  and  _50
REMARK   19  A    between atoms: _49  and  _52
REMARK   20  A    between atoms: _55  and  _57
REMARK   21  A    between atoms: _57  and  _58
REMARK   22  A    between atoms: _57  and  _60
REMARK   23  A    between atoms: _62  and  _64
REMARK   24  A    between atoms: _64  and  _65
REMARK   25  A    between atoms: _68  and  _70
REMARK   26  A    between atoms: _70  and  _71
REMARK   27  A    between atoms: _70  and  _73
REMARK   28  A    between atoms: _76  and  _78
REMARK   29  A    between atoms: _78  and  _79
REMARK   30  A    between atoms: _82  and  _84
REMARK   31  A    between atoms: _84  and  _85
REMARK   32  A    between atoms: _84  and  _87
REMARK   33  A    between atoms: _90  and  _92
REMARK   34  A    between atoms: _92  and  _93
REMARK   35  A    between atoms: _92  and  _95
REMARK   36  A    between atoms: _95  and  _96
REMARK   37  A    between atoms: _96  and  _97
REMARK   38  A    between atoms: _97  and  _98
REMARK   39  A    between atoms: _98  and  _99
REMARK   40  A    between atoms: _103  and  _105
REMARK   41  A    between atoms: _105  and  _106
REMARK   42  A    between atoms: _105  and  _108
REMARK   43  A    between atoms: _108  and  _109
REMARK   44  A    between atoms: _109  and  _110
REMARK   45  A    between atoms: _110  and  _111
REMARK   46  A    between atoms: _111  and  _112
REMARK   47  A    between atoms: _116  and  _118
REMARK   48  A    between atoms: _118  and  _119
REMARK   49  A    between atoms: _118  and  _121
REMARK   50  A    between atoms: _121  and  _122
REMARK   51  A    between atoms: _125  and  _127
REMARK   52  A    between atoms: _127  and  _128
REMARK   53  A    between atoms: _127  and  _130
REMARK   54  A    between atoms: _130  and  _131
REMARK   55  A    between atoms: _131  and  _132
REMARK   56  A    between atoms: _132  and  _133
REMARK   57  A    between atoms: _133  and  _134
REMARK   58  A    between atoms: _138  and  _140
REMARK   59  A    between atoms: _140  and  _141
REMARK   60  A    between atoms: _140  and  _143
REMARK   61  A    between atoms: _143  and  _144
REMARK   62  A    between atoms: _144  and  _145
REMARK   63  A    between atoms: _145  and  _146
REMARK   64  A    between atoms: _155  and  _157
REMARK   65  A    between atoms: _157  and  _158
REMARK   66  A    between atoms: _157  and  _160
REMARK   67  A    between atoms: _160  and  _161
REMARK   68  A    between atoms: _164  and  _166
REMARK   69  A    between atoms: _166  and  _167
REMARK   70  A    between atoms: _166  and  _169
REMARK   71  A    between atoms: _169  and  _170
REMARK   72  A    between atoms: _175  and  _176
REMARK   73  A    between atoms: _178  and  _180
REMARK   74  A    between atoms: _180  and  _181
REMARK   75  A    between atoms: _180  and  _183
REMARK   76  A    between atoms: _183  and  _184
REMARK   77  A    between atoms: _184  and  _185
REMARK   78  A    between atoms: _185  and  _186
REMARK   79  A    between atoms: _195  and  _197
REMARK   80  A    between atoms: _197  and  _198
REMARK   81  A    between atoms: _197  and  _200
REMARK   82  A    between atoms: _200  and  _201
REMARK   83  A    between atoms: _201  and  _202
REMARK   84  A    between atoms: _205  and  _207
REMARK   85  A    between atoms: _207  and  _208
REMARK   86  A    between atoms: _207  and  _210
REMARK   87  A    between atoms: _210  and  _211
REMARK   88  A    between atoms: _214  and  _216
REMARK   89  A    between atoms: _216  and  _217
REMARK   90  A    between atoms: _216  and  _219
REMARK   91  A    between atoms: _219  and  _220
REMARK   92  A    between atoms: _220  and  _221
REMARK   93  A    between atoms: _221  and  _222
REMARK   94  A    between atoms: _231  and  _233
REMARK   95  A    between atoms: _233  and  _234
REMARK   96  A    between atoms: _233  and  _236
REMARK   97  A    between atoms: _236  and  _237
REMARK   98  A    between atoms: _240  and  _242
REMARK   99  A    between atoms: _242  and  _243
REMARK  100  A    between atoms: _242  and  _245
REMARK  101  A    between atoms: _245  and  _246
REMARK  102  A    between atoms: _249  and  _251
REMARK  103  A    between atoms: _251  and  _252
REMARK  104  A    between atoms: _251  and  _254
REMARK  105  A    between atoms: _254  and  _255
REMARK  106  A    between atoms: _260  and  _262
REMARK  107  A    between atoms: _262  and  _263
REMARK  108  A    between atoms: _262  and  _265
REMARK  109  A    between atoms: _265  and  _266
REMARK  110  A    between atoms: _266  and  _267
REMARK  111  A    between atoms: _269  and  _271
REMARK  112  A    between atoms: _271  and  _272
REMARK  113  A    between atoms: _271  and  _274
REMARK  114  A    between atoms: _274  and  _275
REMARK  115  A    between atoms: _280  and  _282
REMARK  116  A    between atoms: _282  and  _283
REMARK  117  A    between atoms: _282  and  _285
REMARK  118  A    between atoms: _288  and  _290
REMARK  119  A    between atoms: _290  and  _291
REMARK  120  A    between atoms: _290  and  _293
REMARK  121  A    between atoms: _293  and  _294
REMARK  122  A    between atoms: _297  and  _299
REMARK  123  A    between atoms: _299  and  _300
REMARK  124  A    between atoms: _302  and  _304
REMARK  125  A    between atoms: _304  and  _305
REMARK  126  A    between atoms: _304  and  _307
REMARK  127  A    between atoms: _307  and  _308
REMARK  128  A    between atoms: _311  and  _313
REMARK  129  A    between atoms: _313  and  _314
REMARK  130  A    between atoms: _313  and  _316
REMARK  131  A    between atoms: _316  and  _317
REMARK  132  A    between atoms: _320  and  _322
REMARK  133  A    between atoms: _322  and  _323
REMARK  134  A    between atoms: _322  and  _325
REMARK  135  A    between atoms: _325  and  _326
REMARK  136  A    between atoms: _329  and  _331
REMARK  137  A    between atoms: _331  and  _332
REMARK  138  A    between atoms: _331  and  _334
REMARK  139  A    between atoms: _334  and  _335
REMARK  140  A    between atoms: _340  and  _341
REMARK  141  A    between atoms: _343  and  _345
REMARK  142  A    between atoms: _345  and  _346
REMARK  143  A    between atoms: _345  and  _348
REMARK  144  A    between atoms: _348  and  _349
REMARK  145  A    between atoms: _352  and  _354
REMARK  146  A    between atoms: _354  and  _355
REMARK  147  A    between atoms: _354  and  _357
REMARK  148  A    between atoms: _360  and  _362
REMARK  149  A    between atoms: _362  and  _363
REMARK  150  A    between atoms: _362  and  _365
REMARK  151  A    between atoms: _365  and  _366
REMARK  152  A    between atoms: _369  and  _371
REMARK  153  A    between atoms: _371  and  _372
REMARK  154  A    between atoms: _371  and  _374
REMARK  155  A    between atoms: _374  and  _375
REMARK  156  A    between atoms: _380  and  _382
REMARK  157  A    between atoms: _382  and  _383
REMARK  158  A    between atoms: _382  and  _385
REMARK  159  A    between atoms: _385  and  _386
REMARK  160  A    between atoms: _389  and  _391
REMARK  161  A    between atoms: _391  and  _392
REMARK  162  A    between atoms: _391  and  _394
REMARK  163  A    between atoms: _394  and  _395
REMARK  164  A    between atoms: _395  and  _396
REMARK  165  A    between atoms: _398  and  _400
REMARK  166  A    between atoms: _400  and  _401
REMARK  167  A    between atoms: _403  and  _405
REMARK  168  A    between atoms: _405  and  _406
REMARK  169  A    between atoms: _405  and  _408
REMARK  170  A    between atoms: _408  and  _409
REMARK  171  A    between atoms: _412  and  _414
REMARK  172  A    between atoms: _414  and  _415
REMARK  173  A    between atoms: _414  and  _417
REMARK  174  A    between atoms: _417  and  _418
REMARK  175  A    between atoms: _423  and  _424
REMARK  176  A    between atoms: _426  and  _428
REMARK  177  A    between atoms: _428  and  _429
REMARK  178  A    between atoms: _428  and  _431
REMARK  179  A    between atoms: _431  and  _432
REMARK  180  A    between atoms: _435  and  _437
REMARK  181  A    between atoms: _437  and  _438
REMARK  182  A    between atoms: _437  and  _440
REMARK  183  A    between atoms: _440  and  _441
REMARK  184  A    between atoms: _444  and  _446
REMARK  185  A    between atoms: _446  and  _447
REMARK  186  A    between atoms: _446  and  _449
REMARK  187  A    between atoms: _449  and  _450
REMARK  188  A    between atoms: _453  and  _455
REMARK  189  A    between atoms: _455  and  _456
REMARK  190  A    between atoms: _455  and  _458
REMARK  191  A    between atoms: _458  and  _459
REMARK  192  A    between atoms: _464  and  _466
REMARK  193  A    between atoms: _466  and  _467
REMARK  194  A    between atoms: _466  and  _469
REMARK  195  A    between atoms: _469  and  _470
REMARK  196  A    between atoms: _470  and  _471
REMARK  197  A    between atoms: _471  and  _472
REMARK  198  A    between atoms: _481  and  _483
REMARK  199  A    between atoms: _483  and  _484
REMARK  200  A    between atoms: _483  and  _486
REMARK  201  A    between atoms: _486  and  _487
REMARK  202  A    between atoms: _490  and  _492
REMARK  203  A    between atoms: _492  and  _493
REMARK  204  A    between atoms: _492  and  _495
REMARK  205  A    between atoms: _495  and  _496
REMARK  206  A    between atoms: _499  and  _501
REMARK  207  A    between atoms: _501  and  _502
REMARK  208  A    between atoms: _501  and  _504
REMARK  209  A    between atoms: _504  and  _505
REMARK  210  A    between atoms: _507  and  _509
REMARK  211  A    between atoms: _509  and  _510
REMARK  212  A    between atoms: _509  and  _512
REMARK  213  A    between atoms: _512  and  _513
REMARK  214  A    between atoms: _518  and  _520
REMARK  215  A    between atoms: _520  and  _521
REMARK  216  A    between atoms: _524  and  _526
REMARK  217  A    between atoms: _526  and  _527
REMARK  218  A    between atoms: _526  and  _529
REMARK  219  A    between atoms: _529  and  _530
REMARK  220  A    between atoms: _530  and  _531
REMARK  221  A    between atoms: _531  and  _532
REMARK  222  A    between atoms: _532  and  _533
REMARK  223  A    between atoms: _537  and  _539
REMARK  224  A    between atoms: _539  and  _540
REMARK  225  A    between atoms: _539  and  _542
REMARK  226  A    between atoms: _542  and  _543
REMARK  227  A    between atoms: _546  and  _548
REMARK  228  A    between atoms: _548  and  _549
REMARK  229  A    between atoms: _548  and  _551
REMARK  230  A    between atoms: _551  and  _552
REMARK  231  A    between atoms: _555  and  _557
REMARK  232  A    between atoms: _557  and  _558
REMARK  233  A    between atoms: _557  and  _560
REMARK  234  A    between atoms: _560  and  _561
REMARK  235  A    between atoms: _564  and  _566
REMARK  236  A    between atoms: _566  and  _567
REMARK  237  A    between atoms: _566  and  _569
REMARK  238  A    between atoms: _569  and  _570
REMARK  239  A    between atoms: _576  and  _578
REMARK  240  A    between atoms: _578  and  _579
REMARK  241  A    between atoms: _581  and  _583
REMARK  242  A    between atoms: _583  and  _584
REMARK  243  A    between atoms: _583  and  _586
REMARK  244  A    between atoms: _586  and  _587
REMARK  245  A    between atoms: _590  and  _592
REMARK  246  A    between atoms: _592  and  _593
REMARK  247  A    between atoms: _596  and  _598
REMARK  248  A    between atoms: _598  and  _599
REMARK  249  A    between atoms: _598  and  _601
REMARK  250  A    between atoms: _601  and  _602
REMARK  251  A    between atoms: _607  and  _609
REMARK  252  A    between atoms: _609  and  _610
REMARK  253  A    between atoms: _609  and  _612
REMARK  254  A    between atoms: _612  and  _613
REMARK                            x       y       z     vdW  Elec       q    Type
REMARK                         _______ _______ _______ _____ _____    ______ ____
ROOT
ATOM      1  CA  ARG A   5       4.038  -2.552  35.285  0.00  0.00    +0.149 C 
ENDROOT
BRANCH   1   2
ATOM      2  C   ARG A   5       5.037  -2.633  34.130  0.00  0.00    +0.241 C 
ATOM      3  N   GLU A   6       6.300  -2.978  34.411  0.00  0.00    -0.297 N 
ATOM      4  H   GLU A   6       6.575  -3.184  35.393  0.00  0.00    +0.150 HD
ATOM      5  O   ARG A   5       4.642  -2.462  32.994  0.00  0.00    -0.273 OA
BRANCH   3   6
ATOM      6  CA  GLU A   6       7.298  -3.067  33.339  0.00  0.00    +0.149 C 
BRANCH   6   7
ATOM      7  C   GLU A   6       6.914  -4.061  32.242  0.00  0.00    +0.241 C 
ATOM      8  N   LEU A   7       6.389  -5.222  32.644  0.00  0.00    -0.297 N 
ATOM      9  H   LEU A   7       6.192  -5.397  33.650  0.00  0.00    +0.150 HD
ATOM     10  O   GLU A   6       7.109  -3.784  31.005  0.00  0.00    -0.273 OA
BRANCH   8  11
ATOM     11  CA  LEU A   7       6.096  -6.248  31.630  0.00  0.00    +0.149 C 
BRANCH  11  12
ATOM     12  C   LEU A   7       4.910  -5.813  30.766  0.00  0.00    +0.241 C 
ATOM     13  N   ARG A   8       3.888  -5.313  31.419  0.00  0.00    -0.297 N 
ATOM     14  H   ARG A   8       3.892  -5.299  32.459  0.00  0.00    +0.150 HD
ATOM     15  O   LEU A   7       4.913  -5.917  29.518  0.00  0.00    -0.273 OA
BRANCH  13  16
ATOM     16  CA  ARG A   8       2.742  -4.775  30.683  0.00  0.00    +0.149 C 
BRANCH  16  17
ATOM     17  C   ARG A   8       3.196  -3.700  29.733  0.00  0.00    +0.241 C 
ATOM     18  N   LEU A   9       4.054  -2.796  30.215  0.00  0.00    -0.297 N 
ATOM     19  H   LEU A   9       4.367  -2.864  31.204  0.00  0.00    +0.150 HD
ATOM     20  O   ARG A   8       2.782  -3.689  28.590  0.00  0.00    -0.273 OA
BRANCH  18  21
ATOM     21  CA  LEU A   9       4.563  -1.705  29.366  0.00  0.00    +0.149 C 
BRANCH  21  22
ATOM     22  C   LEU A   9       5.286  -2.216  28.124  0.00  0.00    +0.241 C 
ATOM     23  N   LEU A  10       6.170  -3.186  28.307  0.00  0.00    -0.298 N 
ATOM     24  H   LEU A  10       6.238  -3.639  29.241  0.00  0.00    +0.150 HD
ATOM     25  O   LEU A   9       5.026  -1.774  27.003  0.00  0.00    -0.273 OA
BRANCH  23  26
ATOM     26  CA  LEU A  10       7.059  -3.641  27.225  0.00  0.00    +0.137 C 
BRANCH  26  27
ATOM     27  C   LEU A  10       6.340  -4.519  26.254  0.00  0.00    +0.227 C 
ATOM     28  O   LEU A  10       6.745  -4.656  25.094  0.00  0.00    -0.286 OA
ENDBRANCH  26  27
BRANCH  26  29
ATOM     29  CB  LEU A  10       8.248  -4.397  27.809  0.00  0.00    +0.028 C 
BRANCH  29  30
ATOM     30  CG  LEU A  10       9.278  -3.516  28.536  0.00  0.00    +0.002 C 
ATOM     31  CD2 LEU A  10      10.261  -4.352  29.308  0.00  0.00    +0.000 C 
ATOM     32  CD1 LEU A  10      10.010  -2.633  27.544  0.00  0.00    +0.000 C 
ENDBRANCH  29  30
ENDBRANCH  26  29
ENDBRANCH  23  26
ENDBRANCH  21  22
BRANCH  21  33
ATOM     33  CB  LEU A   9       5.468  -0.760  30.181  0.00  0.00    +0.029 C 
BRANCH  33  34
ATOM     34  CG  LEU A   9       5.378   0.748  29.883  0.00  0.00    +0.002 C 
ATOM     35  CD2 LEU A   9       4.283   1.407  30.720  0.00  0.00    +0.000 C 
ATOM     36  CD1 LEU A   9       5.160   1.077  28.394  0.00  0.00    +0.000 C 
ENDBRANCH  33  34
ENDBRANCH  21  33
ENDBRANCH  18  21
ENDBRANCH  16  17
BRANCH  16  37
ATOM     37  CB  ARG A   8       1.671  -4.197  31.623  0.00  0.00    +0.033 C 
BRANCH  37  38
ATOM     38  CG  ARG A   8       0.716  -5.231  32.146  0.00  0.00    +0.045 C 
BRANCH  38  39
ATOM     39  CD  ARG A   8      -0.234  -5.823  31.114  0.00  0.00    +0.174 C 
BRANCH  39  40
ATOM     40  NE  ARG A   8      -1.063  -4.822  30.464  0.00  0.00    -0.265 N 
ATOM     41  CZ  ARG A   8      -2.018  -4.122  31.047  0.00  0.00    +0.342 C 
ATOM     42  NH2 ARG A   8      -2.322  -4.302  32.316  0.00  0.00    -0.292 N 
ATOM     43 HH21 ARG A   8      -1.806  -5.007  32.879  0.00  0.00    +0.255 HD
ATOM     44 HH22 ARG A   8      -3.078  -3.739  32.754  0.00  0.00    +0.255 HD
ATOM     45  NH1 ARG A   8      -2.684  -3.227  30.346  0.00  0.00    -0.292 N 
ATOM     46 HH11 ARG A   8      -3.438  -2.670  30.796  0.00  0.00    +0.255 HD
ATOM     47 HH12 ARG A   8      -2.455  -3.077  29.343  0.00  0.00    +0.255 HD
ATOM     48  HE  ARG A   8      -0.889  -4.642  29.455  0.00  0.00    +0.259 HD
ENDBRANCH  39  40
ENDBRANCH  38  39
ENDBRANCH  37  38
ENDBRANCH  16  37
ENDBRANCH  13  16
ENDBRANCH  11  12
BRANCH  11  49
ATOM     49  CB  LEU A   7       5.880  -7.614  32.293  0.00  0.00    +0.029 C 
BRANCH  49  50
ATOM     50  CG  LEU A   7       5.354  -8.779  31.464  0.00  0.00    +0.002 C 
ATOM     51  CD2 LEU A   7       5.147  -9.986  32.405  0.00  0.00    +0.000 C 
ATOM     52  CD1 LEU A   7       6.287  -9.128  30.325  0.00  0.00    +0.000 C 
ENDBRANCH  49  50
ENDBRANCH  11  49
ENDBRANCH   8  11
ENDBRANCH   6   7
BRANCH   6  53
ATOM     53  CB  GLU A   6       8.697  -3.427  33.879  0.00  0.00    +0.041 C 
BRANCH  53  54
ATOM     54  CG  GLU A   6       9.800  -3.366  32.822  0.00  0.00    +0.116 C 
BRANCH  54  55
ATOM     55  CD  GLU A   6      11.211  -3.592  33.357  0.00  0.00    +0.365 C 
ATOM     56  OE2 GLU A   6      11.376  -4.068  34.508  0.00  0.00    -0.246 OA
ATOM     57  OE1 GLU A   6      12.178  -3.268  32.629  0.00  0.00    -0.246 OA
ENDBRANCH  54  55
ENDBRANCH  53  54
ENDBRANCH   6  53
ENDBRANCH   3   6
ENDBRANCH   1   2
BRANCH   1  59
ATOM     58  C   TYR A   4       3.757  -5.006  35.434  0.00  0.00    +0.241 C 
ATOM     59  N   ARG A   5       4.062  -3.823  35.993  0.00  0.00    -0.297 N 
ATOM     60  H   ARG A   5       4.333  -3.815  36.997  0.00  0.00    +0.150 HD
ATOM     61  O   TYR A   4       3.396  -5.162  34.249  0.00  0.00    -0.273 OA
BRANCH  58  62
ATOM     62  CA  TYR A   4       3.895  -6.201  36.351  0.00  0.00    +0.153 C 
BRANCH  62  64
ATOM     63  C   THR A   3       6.326  -6.166  36.731  0.00  0.00    +0.243 C 
ATOM     64  N   TYR A   4       5.078  -6.098  37.183  0.00  0.00    -0.297 N 
ATOM     65  H   TYR A   4       4.940  -5.961  38.205  0.00  0.00    +0.150 HD
ATOM     66  O   THR A   3       6.623  -6.278  35.561  0.00  0.00    -0.273 OA
BRANCH  63  67
ATOM     67  CA  THR A   3       7.403  -6.078  37.799  0.00  0.00    +0.176 C 
BRANCH  67  69
ATOM     68  C   ARG A   2       7.024  -3.712  38.325  0.00  0.00    +0.241 C 
ATOM     69  N   THR A   3       7.085  -4.987  38.715  0.00  0.00    -0.295 N 
ATOM     70  H   THR A   3       6.898  -5.212  39.713  0.00  0.00    +0.150 HD
ATOM     71  O   ARG A   2       7.213  -3.340  37.153  0.00  0.00    -0.273 OA
BRANCH  68  72
ATOM     72  CA  ARG A   2       6.699  -2.690  39.428  0.00  0.00    +0.149 C 
BRANCH  72  74
ATOM     73  C   LYS A   1       4.480  -3.567  39.930  0.00  0.00    +0.238 C 
ATOM     74  N   ARG A   2       5.691  -3.204  40.335  0.00  0.00    -0.297 N 
ATOM     75  H   ARG A   2       5.926  -3.292  41.344  0.00  0.00    +0.150 HD
ATOM     76  O   LYS A   1       4.121  -3.547  38.756  0.00  0.00    -0.274 OA
BRANCH  73  77
ATOM     77  CA  LYS A   1       3.571  -4.073  41.013  0.00  0.00    +0.145 C 
BRANCH  77  78
ATOM     78  N   LYS A   1       4.362  -4.943  41.882  0.00  0.00    -0.238 NA
ATOM     79  H   LYS A   1       4.593  -4.613  42.841  0.00  0.00    +0.142 HD
ENDBRANCH  77  78
BRANCH  77  80
ATOM     80  CB  LYS A   1       3.002  -2.910  41.829  0.00  0.00    +0.026 C 
BRANCH  80  81
ATOM     81  CG  LYS A   1       1.970  -2.067  41.069  0.00  0.00    -0.000 C 
BRANCH  81  82
ATOM     82  CD  LYS A   1       1.189  -1.186  42.015  0.00  0.00    -0.024 C 
BRANCH  82  83
ATOM     83  CE  LYS A   1       0.267  -0.286  41.221  0.00  0.00    -0.086 C 
BRANCH  83  84
ATOM     84  NZ  LYS A   1      -0.375   0.791  42.025  0.00  0.00    +0.380 N 
ATOM     85  HZ1 LYS A   1      -0.943   0.363  42.784  0.00  0.00    -0.089 HD
ATOM     86  HZ2 LYS A   1       0.361   1.397  42.441  0.00  0.00    -0.089 HD
ATOM     87  HZ3 LYS A   1      -0.989   1.362  41.410  0.00  0.00    -0.089 HD
ENDBRANCH  83  84
ENDBRANCH  82  83
ENDBRANCH  81  82
ENDBRANCH  80  81
ENDBRANCH  77  80
ENDBRANCH  73  77
ENDBRANCH  72  74
BRANCH  72  88
ATOM     88  CB  ARG A   2       7.942  -2.316  40.233  0.00  0.00    +0.033 C 
BRANCH  88  89
ATOM     89  CG  ARG A   2       9.166  -1.906  39.445  0.00  0.00    +0.045 C 
BRANCH  89  90
ATOM     90  CD  ARG A   2      10.383  -1.602  40.348  0.00  0.00    +0.174 C 
BRANCH  90  91
ATOM     91  NE  ARG A   2      10.619  -0.170  40.523  0.00  0.00    -0.265 N 
ATOM     92  HE  ARG A   2      10.219   0.278  41.372  0.00  0.00    +0.259 HD
ATOM     93  CZ  ARG A   2      11.307   0.615  39.683  0.00  0.00    +0.342 C 
ATOM     94  NH2 ARG A   2      11.434   1.903  39.976  0.00  0.00    -0.292 N 
ATOM     95 HH21 ARG A   2      11.004   2.284  40.843  0.00  0.00    +0.255 HD
ATOM     96 HH22 ARG A   2      11.964   2.531  39.339  0.00  0.00    +0.255 HD
ATOM     97  NH1 ARG A   2      11.862   0.144  38.564  0.00  0.00    -0.292 N 
ATOM     98 HH11 ARG A   2      11.767  -0.863  38.320  0.00  0.00    +0.255 HD
ATOM     99 HH12 ARG A   2      12.389   0.784  37.936  0.00  0.00    +0.255 HD
ENDBRANCH  90  91
ENDBRANCH  89  90
ENDBRANCH  88  89
ENDBRANCH  72  88
ENDBRANCH  68  72
ENDBRANCH  67  69
BRANCH  67 100
ATOM    100  CB  THR A   3       7.518  -7.426  38.565  0.00  0.00    +0.137 C 
ATOM    101  CG2 THR A   3       7.530  -8.616  37.601  0.00  0.00    +0.034 C 
BRANCH 100 102
ATOM    102  OG1 THR A   3       8.766  -7.497  39.279  0.00  0.00    -0.382 OA
ATOM    103  HG1 THR A   3       8.816  -6.752  39.929  0.00  0.00    +0.210 HD
ENDBRANCH 100 102
ENDBRANCH  67 100
ENDBRANCH  63  67
ENDBRANCH  62  64
BRANCH  62 104
ATOM    104  CB  TYR A   4       2.649  -6.333  37.245  0.00  0.00    +0.055 C 
BRANCH 104 105
ATOM    105  CG  TYR A   4       1.353  -6.407  36.477  0.00  0.00    -0.020 A 
ATOM    106  CD2 TYR A   4       0.471  -5.337  36.488  0.00  0.00    -0.001 A 
ATOM    107  CE2 TYR A   4      -0.710  -5.374  35.761  0.00  0.00    +0.036 A 
ATOM    108  CZ  TYR A   4      -1.031  -6.486  35.025  0.00  0.00    +0.134 A 
ATOM    109  CE1 TYR A   4      -0.166  -7.581  34.988  0.00  0.00    +0.036 A 
ATOM    110  CD1 TYR A   4       1.020  -7.533  35.737  0.00  0.00    -0.001 A 
BRANCH 108 111
ATOM    111  OH  TYR A   4      -2.210  -6.489  34.355  0.00  0.00    -0.506 OA
ATOM    112  HH  TYR A   4      -2.311  -7.347  33.871  0.00  0.00    +0.292 HD
ENDBRANCH 108 111
ENDBRANCH 104 105
ENDBRANCH  62 104
ENDBRANCH  58  62
ENDBRANCH   1  59
BRANCH   1 113
ATOM    113  CB  ARG A   5       4.342  -1.380  36.228  0.00  0.00    +0.033 C 
BRANCH 113 114
ATOM    114  CG  ARG A   5       4.646  -0.007  35.539  0.00  0.00    +0.045 C 
BRANCH 114 115
ATOM    115  CD  ARG A   5       5.314   0.979  36.499  0.00  0.00    +0.174 C 
BRANCH 115 116
ATOM    116  NE  ARG A   5       4.372   1.409  37.540  0.00  0.00    -0.265 N 
ATOM    117  CZ  ARG A   5       4.594   1.384  38.839  0.00  0.00    +0.342 C 
ATOM    118  NH2 ARG A   5       3.633   1.806  39.671  0.00  0.00    -0.292 N 
ATOM    119 HH21 ARG A   5       3.792   1.793  40.699  0.00  0.00    +0.255 HD
ATOM    120 HH22 ARG A   5       2.728   2.147  39.289  0.00  0.00    +0.255 HD
ATOM    121  NH1 ARG A   5       5.741   0.938  39.340  0.00  0.00    -0.292 N 
ATOM    122 HH11 ARG A   5       5.890   0.929  40.369  0.00  0.00    +0.255 HD
ATOM    123 HH12 ARG A   5       6.489   0.598  38.703  0.00  0.00    +0.255 HD
ATOM    124  HE  ARG A   5       3.447   1.765  37.224  0.00  0.00    +0.259 HD
ENDBRANCH 115 116
ENDBRANCH 114 115
ENDBRANCH 113 114
ENDBRANCH   1 113
TORSDOF 51
REMARK  Name = ../refined-set-2016/2baj/2baj_pocket.pdb
REMARK  254 active torsions:
REMARK  status: ('A' for Active; 'I' for Inactive)
REMARK    1  A    between atoms: _1  and  _3
REMARK    2  A    between atoms: _3  and  _4
REMARK    3  A    between atoms: _3  and  _6
REMARK    4  A    between atoms: _6  and  _7
REMARK    5  A    between atoms: _17  and  _19
REMARK    6  A    between atoms: _19  and  _20
REMARK    7  A    between atoms: _19  and  _22
REMARK    8  A    between atoms: _25  and  _27
REMARK    9  A    between atoms: _27  and  _28
REMARK   10  A    between atoms: _27  and  _30
REMARK   11  A    between atoms: _30  and  _31
REMARK   12  A    between atoms: _36  and  _37
REMARK   13  A    between atoms: _39  and  _41
REMARK   14  A    between atoms: _41  and  _42
REMARK   15  A    between atoms: _41  and  _44
REMARK   16  A    between atoms: _44  and  _45
REMARK   17  A    between atoms: _47  and  _49
REMARK   18  A    between atoms: _49  and  _50
REMARK   19  A    between atoms: _49  and  _52
REMARK   20  A    between atoms: _55  and  _57
REMARK   21  A    between atoms: _57  and  _58
REMARK   22  A    between atoms: _57  and  _60
REMARK   23  A    between atoms: _62  and  _64
REMARK   24  A    between atoms: _64  and  _65
REMARK   25  A    between atoms: _68  and  _70
REMARK   26  A    between atoms: _70  and  _71
REMARK   27  A    between atoms: _70  and  _73
REMARK   28  A    between atoms: _76  and  _78
REMARK   29  A    between atoms: _78  and  _79
REMARK   30  A    between atoms: _82  and  _84
REMARK   31  A    between atoms: _84  and  _85
REMARK   32  A    between atoms: _84  and  _87
REMARK   33  A    between atoms: _90  and  _92
REMARK   34  A    between atoms: _92  and  _93
REMARK   35  A    between atoms: _92  and  _95
REMARK   36  A    between atoms: _95  and  _96
REMARK   37  A    between atoms: _96  and  _97
REMARK   38  A    between atoms: _97  and  _98
REMARK   39  A    between atoms: _98  and  _99
REMARK   40  A    between atoms: _103  and  _105
REMARK   41  A    between atoms: _105  and  _106
REMARK   42  A    between atoms: _105  and  _108
REMARK   43  A    between atoms: _108  and  _109
REMARK   44  A    between atoms: _109  and  _110
REMARK   45  A    between atoms: _110  and  _111
REMARK   46  A    between atoms: _111  and  _112
REMARK   47  A    between atoms: _116  and  _118
REMARK   48  A    between atoms: _118  and  _119
REMARK   49  A    between atoms: _118  and  _121
REMARK   50  A    between atoms: _121  and  _122
REMARK   51  A    between atoms: _125  and  _127
REMARK   52  A    between atoms: _127  and  _128
REMARK   53  A    between atoms: _127  and  _130
REMARK   54  A    between atoms: _130  and  _131
REMARK   55  A    between atoms: _131  and  _132
REMARK   56  A    between atoms: _132  and  _133
REMARK   57  A    between atoms: _133  and  _134
REMARK   58  A    between atoms: _138  and  _140
REMARK   59  A    between atoms: _140  and  _141
REMARK   60  A    between atoms: _140  and  _143
REMARK   61  A    between atoms: _143  and  _144
REMARK   62  A    between atoms: _144  and  _145
REMARK   63  A    between atoms: _145  and  _146
REMARK   64  A    between atoms: _155  and  _157
REMARK   65  A    between atoms: _157  and  _158
REMARK   66  A    between atoms: _157  and  _160
REMARK   67  A    between atoms: _160  and  _161
REMARK   68  A    between atoms: _164  and  _166
REMARK   69  A    between atoms: _166  and  _167
REMARK   70  A    between atoms: _166  and  _169
REMARK   71  A    between atoms: _169  and  _170
REMARK   72  A    between atoms: _175  and  _176
REMARK   73  A    between atoms: _178  and  _180
REMARK   74  A    between atoms: _180  and  _181
REMARK   75  A    between atoms: _180  and  _183
REMARK   76  A    between atoms: _183  and  _184
REMARK   77  A    between atoms: _184  and  _185
REMARK   78  A    between atoms: _185  and  _186
REMARK   79  A    between atoms: _195  and  _197
REMARK   80  A    between atoms: _197  and  _198
REMARK   81  A    between atoms: _197  and  _200
REMARK   82  A    between atoms: _200  and  _201
REMARK   83  A    between atoms: _201  and  _202
REMARK   84  A    between atoms: _205  and  _207
REMARK   85  A    between atoms: _207  and  _208
REMARK   86  A    between atoms: _207  and  _210
REMARK   87  A    between atoms: _210  and  _211
REMARK   88  A    between atoms: _214  and  _216
REMARK   89  A    between atoms: _216  and  _217
REMARK   90  A    between atoms: _216  and  _219
REMARK   91  A    between atoms: _219  and  _220
REMARK   92  A    between atoms: _220  and  _221
REMARK   93  A    between atoms: _221  and  _222
REMARK   94  A    between atoms: _231  and  _233
REMARK   95  A    between atoms: _233  and  _234
REMARK   96  A    between atoms: _233  and  _236
REMARK   97  A    between atoms: _236  and  _237
REMARK   98  A    between atoms: _240  and  _242
REMARK   99  A    between atoms: _242  and  _243
REMARK  100  A    between atoms: _242  and  _245
REMARK  101  A    between atoms: _245  and  _246
REMARK  102  A    between atoms: _249  and  _251
REMARK  103  A    between atoms: _251  and  _252
REMARK  104  A    between atoms: _251  and  _254
REMARK  105  A    between atoms: _254  and  _255
REMARK  106  A    between atoms: _260  and  _262
REMARK  107  A    between atoms: _262  and  _263
REMARK  108  A    between atoms: _262  and  _265
REMARK  109  A    between atoms: _265  and  _266
REMARK  110  A    between atoms: _266  and  _267
REMARK  111  A    between atoms: _269  and  _271
REMARK  112  A    between atoms: _271  and  _272
REMARK  113  A    between atoms: _271  and  _274
REMARK  114  A    between atoms: _274  and  _275
REMARK  115  A    between atoms: _280  and  _282
REMARK  116  A    between atoms: _282  and  _283
REMARK  117  A    between atoms: _282  and  _285
REMARK  118  A    between atoms: _288  and  _290
REMARK  119  A    between atoms: _290  and  _291
REMARK  120  A    between atoms: _290  and  _293
REMARK  121  A    between atoms: _293  and  _294
REMARK  122  A    between atoms: _297  and  _299
REMARK  123  A    between atoms: _299  and  _300
REMARK  124  A    between atoms: _302  and  _304
REMARK  125  A    between atoms: _304  and  _305
REMARK  126  A    between atoms: _304  and  _307
REMARK  127  A    between atoms: _307  and  _308
REMARK  128  A    between atoms: _311  and  _313
REMARK  129  A    between atoms: _313  and  _314
REMARK  130  A    between atoms: _313  and  _316
REMARK  131  A    between atoms: _316  and  _317
REMARK  132  A    between atoms: _320  and  _322
REMARK  133  A    between atoms: _322  and  _323
REMARK  134  A    between atoms: _322  and  _325
REMARK  135  A    between atoms: _325  and  _326
REMARK  136  A    between atoms: _329  and  _331
REMARK  137  A    between atoms: _331  and  _332
REMARK  138  A    between atoms: _331  and  _334
REMARK  139  A    between atoms: _334  and  _335
REMARK  140  A    between atoms: _340  and  _341
REMARK  141  A    between atoms: _343  and  _345
REMARK  142  A    between atoms: _345  and  _346
REMARK  143  A    between atoms: _345  and  _348
REMARK  144  A    between atoms: _348  and  _349
REMARK  145  A    between atoms: _352  and  _354
REMARK  146  A    between atoms: _354  and  _355
REMARK  147  A    between atoms: _354  and  _357
REMARK  148  A    between atoms: _360  and  _362
REMARK  149  A    between atoms: _362  and  _363
REMARK  150  A    between atoms: _362  and  _365
REMARK  151  A    between atoms: _365  and  _366
REMARK  152  A    between atoms: _369  and  _371
REMARK  153  A    between atoms: _371  and  _372
REMARK  154  A    between atoms: _371  and  _374
REMARK  155  A    between atoms: _374  and  _375
REMARK  156  A    between atoms: _380  and  _382
REMARK  157  A    between atoms: _382  and  _383
REMARK  158  A    between atoms: _382  and  _385
REMARK  159  A    between atoms: _385  and  _386
REMARK  160  A    between atoms: _389  and  _391
REMARK  161  A    between atoms: _391  and  _392
REMARK  162  A    between atoms: _391  and  _394
REMARK  163  A    between atoms: _394  and  _395
REMARK  164  A    between atoms: _395  and  _396
REMARK  165  A    between atoms: _398  and  _400
REMARK  166  A    between atoms: _400  and  _401
REMARK  167  A    between atoms: _403  and  _405
REMARK  168  A    between atoms: _405  and  _406
REMARK  169  A    between atoms: _405  and  _408
REMARK  170  A    between atoms: _408  and  _409
REMARK  171  A    between atoms: _412  and  _414
REMARK  172  A    between atoms: _414  and  _415
REMARK  173  A    between atoms: _414  and  _417
REMARK  174  A    between atoms: _417  and  _418
REMARK  175  A    between atoms: _423  and  _424
REMARK  176  A    between atoms: _426  and  _428
REMARK  177  A    between atoms: _428  and  _429
REMARK  178  A    between atoms: _428  and  _431
REMARK  179  A    between atoms: _431  and  _432
REMARK  180  A    between atoms: _435  and  _437
REMARK  181  A    between atoms: _437  and  _438
REMARK  182  A    between atoms: _437  and  _440
REMARK  183  A    between atoms: _440  and  _441
REMARK  184  A    between atoms: _444  and  _446
REMARK  185  A    between atoms: _446  and  _447
REMARK  186  A    between atoms: _446  and  _449
REMARK  187  A    between atoms: _449  and  _450
REMARK  188  A    between atoms: _453  and  _455
REMARK  189  A    between atoms: _455  and  _456
REMARK  190  A    between atoms: _455  and  _458
REMARK  191  A    between atoms: _458  and  _459
REMARK  192  A    between atoms: _464  and  _466
REMARK  193  A    between atoms: _466  and  _467
REMARK  194  A    between atoms: _466  and  _469
REMARK  195  A    between atoms: _469  and  _470
REMARK  196  A    between atoms: _470  and  _471
REMARK  197  A    between atoms: _471  and  _472
REMARK  198  A    between atoms: _481  and  _483
REMARK  199  A    between atoms: _483  and  _484
REMARK  200  A    between atoms: _483  and  _486
REMARK  201  A    between atoms: _486  and  _487
REMARK  202  A    between atoms: _490  and  _492
REMARK  203  A    between atoms: _492  and  _493
REMARK  204  A    between atoms: _492  and  _495
REMARK  205  A    between atoms: _495  and  _496
REMARK  206  A    between atoms: _499  and  _501
REMARK  207  A    between atoms: _501  and  _502
REMARK  208  A    between atoms: _501  and  _504
REMARK  209  A    between atoms: _504  and  _505
REMARK  210  A    between atoms: _507  and  _509
REMARK  211  A    between atoms: _509  and  _510
REMARK  212  A    between atoms: _509  and  _512
REMARK  213  A    between atoms: _512  and  _513
REMARK  214  A    between atoms: _518  and  _520
REMARK  215  A    between atoms: _520  and  _521
REMARK  216  A    between atoms: _524  and  _526
REMARK  217  A    between atoms: _526  and  _527
REMARK  218  A    between atoms: _526  and  _529
REMARK  219  A    between atoms: _529  and  _530
REMARK  220  A    between atoms: _530  and  _531
REMARK  221  A    between atoms: _531  and  _532
REMARK  222  A    between atoms: _532  and  _533
REMARK  223  A    between atoms: _537  and  _539
REMARK  224  A    between atoms: _539  and  _540
REMARK  225  A    between atoms: _539  and  _542
REMARK  226  A    between atoms: _542  and  _543
REMARK  227  A    between atoms: _546  and  _548
REMARK  228  A    between atoms: _548  and  _549
REMARK  229  A    between atoms: _548  and  _551
REMARK  230  A    between atoms: _551  and  _552
REMARK  231  A    between atoms: _555  and  _557
REMARK  232  A    between atoms: _557  and  _558
REMARK  233  A    between atoms: _557  and  _560
REMARK  234  A    between atoms: _560  and  _561
REMARK  235  A    between atoms: _564  and  _566
REMARK  236  A    between atoms: _566  and  _567
REMARK  237  A    between atoms: _566  and  _569
REMARK  238  A    between atoms: _569  and  _570
REMARK  239  A    between atoms: _576  and  _578
REMARK  240  A    between atoms: _578  and  _579
REMARK  241  A    between atoms: _581  and  _583
REMARK  242  A    between atoms: _583  and  _584
REMARK  243  A    between atoms: _583  and  _586
REMARK  244  A    between atoms: _586  and  _587
REMARK  245  A    between atoms: _590  and  _592
REMARK  246  A    between atoms: _592  and  _593
REMARK  247  A    between atoms: _596  and  _598
REMARK  248  A    between atoms: _598  and  _599
REMARK  249  A    between atoms: _598  and  _601
REMARK  250  A    between atoms: _601  and  _602
REMARK  251  A    between atoms: _607  and  _609
REMARK  252  A    between atoms: _609  and  _610
REMARK  253  A    between atoms: _609  and  _612
REMARK  254  A    between atoms: _612  and  _613
REMARK                            x       y       z     vdW  Elec       q    Type
REMARK                         _______ _______ _______ _____ _____    ______ ____
ROOT
ATOM      1  C   HIS A   1       3.393  -2.139  23.544  0.00  0.00    +0.239 C 
ATOM      2  N   MET A   2       4.669  -1.895  23.878  0.00  0.00    -0.298 N 
ATOM      3  H   MET A   2       5.049  -2.298  24.758  0.00  0.00    +0.150 HD
ATOM      4  O   HIS A   1       2.889  -1.784  22.459  0.00  0.00    -0.274 OA
ENDROOT
BRANCH   1   5
ATOM      5  CA  HIS A   1       2.534  -2.938  24.556  0.00  0.00    +0.151 C 
BRANCH   5   6
ATOM      6  N   HIS A   1       3.273  -3.931  25.389  0.00  0.00    -0.238 NA
ATOM      7  H   HIS A   1       3.519  -3.675  26.367  0.00  0.00    +0.142 HD
ENDBRANCH   5   6
BRANCH   5   8
ATOM      8  CB  HIS A   1       1.807  -1.944  25.451  0.00  0.00    +0.074 C 
BRANCH   8   9
ATOM      9  CG  HIS A   1       0.622  -1.298  24.810  0.00  0.00    +0.082 A 
ATOM     10  ND1 HIS A   1      -0.668  -1.592  25.181  0.00  0.00    -0.227 NA
ATOM     11  CE1 HIS A   1      -1.505  -0.863  24.465  0.00  0.00    +0.199 A 
ATOM     12  NE2 HIS A   1      -0.804  -0.108  23.641  0.00  0.00    -0.221 NA
ATOM     13  CD2 HIS A   1       0.528  -0.342  23.856  0.00  0.00    +0.115 A 
ENDBRANCH   8   9
ENDBRANCH   5   8
ENDBRANCH   1   5
BRANCH   2  14
ATOM     14  CA  MET A   2       5.535  -1.079  23.037  0.00  0.00    +0.138 C 
BRANCH  14  15
ATOM     15  C   MET A   2       5.909  -1.777  21.727  0.00  0.00    +0.227 C 
ATOM     16  O   MET A   2       6.798  -2.654  21.685  0.00  0.00    -0.286 OA
ENDBRANCH  14  15
BRANCH  14  17
ATOM     17  CB  MET A   2       6.807  -0.612  23.790  0.00  0.00    +0.039 C 
BRANCH  17  18
ATOM     18  CG  MET A   2       6.530   0.182  25.102  0.00  0.00    +0.060 C 
BRANCH  18  19
ATOM     19  SD  MET A   2       5.858   1.879  24.939  0.00  0.00    -0.139 S 
ATOM     20  CE  MET A   2       4.165   1.623  24.877  0.00  0.00    +0.069 C 
ENDBRANCH  18  19
ENDBRANCH  17  18
ENDBRANCH  14  17
ENDBRANCH   2  14
TORSDOF 9
REMARK  Name = ../refined-set-2016/2baj/2baj_pocket.pdb
REMARK  254 active torsions:
REMARK  status: ('A' for Active; 'I' for Inactive)
REMARK    1  A    between atoms: _1  and  _3
REMARK    2  A    between atoms: _3  and  _4
REMARK    3  A    between atoms: _3  and  _6
REMARK    4  A    between atoms: _6  and  _7
REMARK    5  A    between atoms: _17  and  _19
REMARK    6  A    between atoms: _19  and  _20
REMARK    7  A    between atoms: _19  and  _22
REMARK    8  A    between atoms: _25  and  _27
REMARK    9  A    between atoms: _27  and  _28
REMARK   10  A    between atoms: _27  and  _30
REMARK   11  A    between atoms: _30  and  _31
REMARK   12  A    between atoms: _36  and  _37
REMARK   13  A    between atoms: _39  and  _41
REMARK   14  A    between atoms: _41  and  _42
REMARK   15  A    between atoms: _41  and  _44
REMARK   16  A    between atoms: _44  and  _45
REMARK   17  A    between atoms: _47  and  _49
REMARK   18  A    between atoms: _49  and  _50
REMARK   19  A    between atoms: _49  and  _52
REMARK   20  A    between atoms: _55  and  _57
REMARK   21  A    between atoms: _57  and  _58
REMARK   22  A    between atoms: _57  and  _60
REMARK   23  A    between atoms: _62  and  _64
REMARK   24  A    between atoms: _64  and  _65
REMARK   25  A    between atoms: _68  and  _70
REMARK   26  A    between atoms: _70  and  _71
REMARK   27  A    between atoms: _70  and  _73
REMARK   28  A    between atoms: _76  and  _78
REMARK   29  A    between atoms: _78  and  _79
REMARK   30  A    between atoms: _82  and  _84
REMARK   31  A    between atoms: _84  and  _85
REMARK   32  A    between atoms: _84  and  _87
REMARK   33  A    between atoms: _90  and  _92
REMARK   34  A    between atoms: _92  and  _93
REMARK   35  A    between atoms: _92  and  _95
REMARK   36  A    between atoms: _95  and  _96
REMARK   37  A    between atoms: _96  and  _97
REMARK   38  A    between atoms: _97  and  _98
REMARK   39  A    between atoms: _98  and  _99
REMARK   40  A    between atoms: _103  and  _105
REMARK   41  A    between atoms: _105  and  _106
REMARK   42  A    between atoms: _105  and  _108
REMARK   43  A    between atoms: _108  and  _109
REMARK   44  A    between atoms: _109  and  _110
REMARK   45  A    between atoms: _110  and  _111
REMARK   46  A    between atoms: _111  and  _112
REMARK   47  A    between atoms: _116  and  _118
REMARK   48  A    between atoms: _118  and  _119
REMARK   49  A    between atoms: _118  and  _121
REMARK   50  A    between atoms: _121  and  _122
REMARK   51  A    between atoms: _125  and  _127
REMARK   52  A    between atoms: _127  and  _128
REMARK   53  A    between atoms: _127  and  _130
REMARK   54  A    between atoms: _130  and  _131
REMARK   55  A    between atoms: _131  and  _132
REMARK   56  A    between atoms: _132  and  _133
REMARK   57  A    between atoms: _133  and  _134
REMARK   58  A    between atoms: _138  and  _140
REMARK   59  A    between atoms: _140  and  _141
REMARK   60  A    between atoms: _140  and  _143
REMARK   61  A    between atoms: _143  and  _144
REMARK   62  A    between atoms: _144  and  _145
REMARK   63  A    between atoms: _145  and  _146
REMARK   64  A    between atoms: _155  and  _157
REMARK   65  A    between atoms: _157  and  _158
REMARK   66  A    between atoms: _157  and  _160
REMARK   67  A    between atoms: _160  and  _161
REMARK   68  A    between atoms: _164  and  _166
REMARK   69  A    between atoms: _166  and  _167
REMARK   70  A    between atoms: _166  and  _169
REMARK   71  A    between atoms: _169  and  _170
REMARK   72  A    between atoms: _175  and  _176
REMARK   73  A    between atoms: _178  and  _180
REMARK   74  A    between atoms: _180  and  _181
REMARK   75  A    between atoms: _180  and  _183
REMARK   76  A    between atoms: _183  and  _184
REMARK   77  A    between atoms: _184  and  _185
REMARK   78  A    between atoms: _185  and  _186
REMARK   79  A    between atoms: _195  and  _197
REMARK   80  A    between atoms: _197  and  _198
REMARK   81  A    between atoms: _197  and  _200
REMARK   82  A    between atoms: _200  and  _201
REMARK   83  A    between atoms: _201  and  _202
REMARK   84  A    between atoms: _205  and  _207
REMARK   85  A    between atoms: _207  and  _208
REMARK   86  A    between atoms: _207  and  _210
REMARK   87  A    between atoms: _210  and  _211
REMARK   88  A    between atoms: _214  and  _216
REMARK   89  A    between atoms: _216  and  _217
REMARK   90  A    between atoms: _216  and  _219
REMARK   91  A    between atoms: _219  and  _220
REMARK   92  A    between atoms: _220  and  _221
REMARK   93  A    between atoms: _221  and  _222
REMARK   94  A    between atoms: _231  and  _233
REMARK   95  A    between atoms: _233  and  _234
REMARK   96  A    between atoms: _233  and  _236
REMARK   97  A    between atoms: _236  and  _237
REMARK   98  A    between atoms: _240  and  _242
REMARK   99  A    between atoms: _242  and  _243
REMARK  100  A    between atoms: _242  and  _245
REMARK  101  A    between atoms: _245  and  _246
REMARK  102  A    between atoms: _249  and  _251
REMARK  103  A    between atoms: _251  and  _252
REMARK  104  A    between atoms: _251  and  _254
REMARK  105  A    between atoms: _254  and  _255
REMARK  106  A    between atoms: _260  and  _262
REMARK  107  A    between atoms: _262  and  _263
REMARK  108  A    between atoms: _262  and  _265
REMARK  109  A    between atoms: _265  and  _266
REMARK  110  A    between atoms: _266  and  _267
REMARK  111  A    between atoms: _269  and  _271
REMARK  112  A    between atoms: _271  and  _272
REMARK  113  A    between atoms: _271  and  _274
REMARK  114  A    between atoms: _274  and  _275
REMARK  115  A    between atoms: _280  and  _282
REMARK  116  A    between atoms: _282  and  _283
REMARK  117  A    between atoms: _282  and  _285
REMARK  118  A    between atoms: _288  and  _290
REMARK  119  A    between atoms: _290  and  _291
REMARK  120  A    between atoms: _290  and  _293
REMARK  121  A    between atoms: _293  and  _294
REMARK  122  A    between atoms: _297  and  _299
REMARK  123  A    between atoms: _299  and  _300
REMARK  124  A    between atoms: _302  and  _304
REMARK  125  A    between atoms: _304  and  _305
REMARK  126  A    between atoms: _304  and  _307
REMARK  127  A    between atoms: _307  and  _308
REMARK  128  A    between atoms: _311  and  _313
REMARK  129  A    between atoms: _313  and  _314
REMARK  130  A    between atoms: _313  and  _316
REMARK  131  A    between atoms: _316  and  _317
REMARK  132  A    between atoms: _320  and  _322
REMARK  133  A    between atoms: _322  and  _323
REMARK  134  A    between atoms: _322  and  _325
REMARK  135  A    between atoms: _325  and  _326
REMARK  136  A    between atoms: _329  and  _331
REMARK  137  A    between atoms: _331  and  _332
REMARK  138  A    between atoms: _331  and  _334
REMARK  139  A    between atoms: _334  and  _335
REMARK  140  A    between atoms: _340  and  _341
REMARK  141  A    between atoms: _343  and  _345
REMARK  142  A    between atoms: _345  and  _346
REMARK  143  A    between atoms: _345  and  _348
REMARK  144  A    between atoms: _348  and  _349
REMARK  145  A    between atoms: _352  and  _354
REMARK  146  A    between atoms: _354  and  _355
REMARK  147  A    between atoms: _354  and  _357
REMARK  148  A    between atoms: _360  and  _362
REMARK  149  A    between atoms: _362  and  _363
REMARK  150  A    between atoms: _362  and  _365
REMARK  151  A    between atoms: _365  and  _366
REMARK  152  A    between atoms: _369  and  _371
REMARK  153  A    between atoms: _371  and  _372
REMARK  154  A    between atoms: _371  and  _374
REMARK  155  A    between atoms: _374  and  _375
REMARK  156  A    between atoms: _380  and  _382
REMARK  157  A    between atoms: _382  and  _383
REMARK  158  A    between atoms: _382  and  _385
REMARK  159  A    between atoms: _385  and  _386
REMARK  160  A    between atoms: _389  and  _391
REMARK  161  A    between atoms: _391  and  _392
REMARK  162  A    between atoms: _391  and  _394
REMARK  163  A    between atoms: _394  and  _395
REMARK  164  A    between atoms: _395  and  _396
REMARK  165  A    between atoms: _398  and  _400
REMARK  166  A    between atoms: _400  and  _401
REMARK  167  A    between atoms: _403  and  _405
REMARK  168  A    between atoms: _405  and  _406
REMARK  169  A    between atoms: _405  and  _408
REMARK  170  A    between atoms: _408  and  _409
REMARK  171  A    between atoms: _412  and  _414
REMARK  172  A    between atoms: _414  and  _415
REMARK  173  A    between atoms: _414  and  _417
REMARK  174  A    between atoms: _417  and  _418
REMARK  175  A    between atoms: _423  and  _424
REMARK  176  A    between atoms: _426  and  _428
REMARK  177  A    between atoms: _428  and  _429
REMARK  178  A    between atoms: _428  and  _431
REMARK  179  A    between atoms: _431  and  _432
REMARK  180  A    between atoms: _435  and  _437
REMARK  181  A    between atoms: _437  and  _438
REMARK  182  A    between atoms: _437  and  _440
REMARK  183  A    between atoms: _440  and  _441
REMARK  184  A    between atoms: _444  and  _446
REMARK  185  A    between atoms: _446  and  _447
REMARK  186  A    between atoms: _446  and  _449
REMARK  187  A    between atoms: _449  and  _450
REMARK  188  A    between atoms: _453  and  _455
REMARK  189  A    between atoms: _455  and  _456
REMARK  190  A    between atoms: _455  and  _458
REMARK  191  A    between atoms: _458  and  _459
REMARK  192  A    between atoms: _464  and  _466
REMARK  193  A    between atoms: _466  and  _467
REMARK  194  A    between atoms: _466  and  _469
REMARK  195  A    between atoms: _469  and  _470
REMARK  196  A    between atoms: _470  and  _471
REMARK  197  A    between atoms: _471  and  _472
REMARK  198  A    between atoms: _481  and  _483
REMARK  199  A    between atoms: _483  and  _484
REMARK  200  A    between atoms: _483  and  _486
REMARK  201  A    between atoms: _486  and  _487
REMARK  202  A    between atoms: _490  and  _492
REMARK  203  A    between atoms: _492  and  _493
REMARK  204  A    between atoms: _492  and  _495
REMARK  205  A    between atoms: _495  and  _496
REMARK  206  A    between atoms: _499  and  _501
REMARK  207  A    between atoms: _501  and  _502
REMARK  208  A    between atoms: _501  and  _504
REMARK  209  A    between atoms: _504  and  _505
REMARK  210  A    between atoms: _507  and  _509
REMARK  211  A    between atoms: _509  and  _510
REMARK  212  A    between atoms: _509  and  _512
REMARK  213  A    between atoms: _512  and  _513
REMARK  214  A    between atoms: _518  and  _520
REMARK  215  A    between atoms: _520  and  _521
REMARK  216  A    between atoms: _524  and  _526
REMARK  217  A    between atoms: _526  and  _527
REMARK  218  A    between atoms: _526  and  _529
REMARK  219  A    between atoms: _529  and  _530
REMARK  220  A    between atoms: _530  and  _531
REMARK  221  A    between atoms: _531  and  _532
REMARK  222  A    between atoms: _532  and  _533
REMARK  223  A    between atoms: _537  and  _539
REMARK  224  A    between atoms: _539  and  _540
REMARK  225  A    between atoms: _539  and  _542
REMARK  226  A    between atoms: _542  and  _543
REMARK  227  A    between atoms: _546  and  _548
REMARK  228  A    between atoms: _548  and  _549
REMARK  229  A    between atoms: _548  and  _551
REMARK  230  A    between atoms: _551  and  _552
REMARK  231  A    between atoms: _555  and  _557
REMARK  232  A    between atoms: _557  and  _558
REMARK  233  A    between atoms: _557  and  _560
REMARK  234  A    between atoms: _560  and  _561
REMARK  235  A    between atoms: _564  and  _566
REMARK  236  A    between atoms: _566  and  _567
REMARK  237  A    between atoms: _566  and  _569
REMARK  238  A    between atoms: _569  and  _570
REMARK  239  A    between atoms: _576  and  _578
REMARK  240  A    between atoms: _578  and  _579
REMARK  241  A    between atoms: _581  and  _583
REMARK  242  A    between atoms: _583  and  _584
REMARK  243  A    between atoms: _583  and  _586
REMARK  244  A    between atoms: _586  and  _587
REMARK  245  A    between atoms: _590  and  _592
REMARK  246  A    between atoms: _592  and  _593
REMARK  247  A    between atoms: _596  and  _598
REMARK  248  A    between atoms: _598  and  _599
REMARK  249  A    between atoms: _598  and  _601
REMARK  250  A    between atoms: _601  and  _602
REMARK  251  A    between atoms: _607  and  _609
REMARK  252  A    between atoms: _609  and  _610
REMARK  253  A    between atoms: _609  and  _612
REMARK  254  A    between atoms: _612  and  _613
REMARK                            x       y       z     vdW  Elec       q    Type
REMARK                         _______ _______ _______ _____ _____    ______ ____
ROOT
ATOM      1  C   ILE A   3      11.181  -1.860  23.185  0.00  0.00    +0.241 C 
ATOM      2  O   ILE A   3      10.045  -1.531  23.565  0.00  0.00    -0.273 OA
ATOM      3  N   GLY A   4      11.444  -3.018  22.593  0.00  0.00    -0.295 N 
ATOM      4  H   GLY A   4      12.422  -3.219  22.303  0.00  0.00    +0.150 HD
ENDROOT
BRANCH   3   5
ATOM      5  CA  GLY A   4      10.426  -4.012  22.334  0.00  0.00    +0.176 C 
BRANCH   5   6
ATOM      6  C   GLY A   4      10.839  -5.371  22.878  0.00  0.00    +0.243 C 
ATOM      7  N   LEU A   5       9.866  -6.077  23.456  0.00  0.00    -0.297 N 
ATOM      8  H   LEU A   5       8.912  -5.666  23.511  0.00  0.00    +0.150 HD
ATOM      9  O   GLY A   4      12.026  -5.760  22.801  0.00  0.00    -0.273 OA
BRANCH   7  10
ATOM     10  CA  LEU A   5      10.093  -7.399  24.011  0.00  0.00    +0.149 C 
BRANCH  10  11
ATOM     11  C   LEU A   5      10.240  -8.390  22.870  0.00  0.00    +0.241 C 
ATOM     12  N   LEU A   6      11.400  -9.037  22.800  0.00  0.00    -0.297 N 
ATOM     13  H   LEU A   6      12.198  -8.662  23.352  0.00  0.00    +0.150 HD
ATOM     14  O   LEU A   5       9.362  -8.522  22.060  0.00  0.00    -0.273 OA
BRANCH  12  15
ATOM     15  CA  LEU A   6      11.633 -10.247  21.995  0.00  0.00    +0.149 C 
BRANCH  15  16
ATOM     16  C   LEU A   6      11.183 -11.533  22.713  0.00  0.00    +0.241 C 
ATOM     17  N   ASP A   7      11.231 -11.523  24.043  0.00  0.00    -0.298 N 
ATOM     18  H   ASP A   7      11.493 -10.651  24.546  0.00  0.00    +0.150 HD
ATOM     19  O   LEU A   6      10.791 -12.517  22.098  0.00  0.00    -0.273 OA
BRANCH  17  20
ATOM     20  CA  ASP A   7      10.918 -12.727  24.795  0.00  0.00    +0.148 C 
BRANCH  20  21
ATOM     21  C   ASP A   7      10.737 -12.369  26.281  0.00  0.00    +0.227 C 
ATOM     22  O   ASP A   7      11.192 -11.338  26.742  0.00  0.00    -0.286 OA
ENDBRANCH  20  21
BRANCH  20  23
ATOM     23  CB  ASP A   7      12.051 -13.755  24.583  0.00  0.00    +0.142 C 
BRANCH  23  24
ATOM     24  CG  ASP A   7      11.632 -15.201  24.864  0.00  0.00    +0.367 C 
ATOM     25  OD2 ASP A   7      10.424 -15.497  25.108  0.00  0.00    -0.246 OA
ATOM     26  OD1 ASP A   7      12.500 -16.109  24.881  0.00  0.00    -0.246 OA
ENDBRANCH  23  24
ENDBRANCH  20  23
ENDBRANCH  17  20
ENDBRANCH  15  16
BRANCH  15  27
ATOM     27  CB  LEU A   6      13.134 -10.364  21.731  0.00  0.00    +0.029 C 
BRANCH  27  28
ATOM     28  CG  LEU A   6      13.756 -10.347  20.330  0.00  0.00    +0.002 C 
ATOM     29  CD2 LEU A   6      15.180  -9.760  20.479  0.00  0.00    +0.000 C 
ATOM     30  CD1 LEU A   6      12.934  -9.637  19.231  0.00  0.00    +0.000 C 
ENDBRANCH  27  28
ENDBRANCH  15  27
ENDBRANCH  12  15
ENDBRANCH  10  11
BRANCH  10  31
ATOM     31  CB  LEU A   5       8.947  -7.795  24.941  0.00  0.00    +0.029 C 
BRANCH  31  32
ATOM     32  CG  LEU A   5       9.328  -8.341  26.322  0.00  0.00    +0.002 C 
ATOM     33  CD2 LEU A   5       8.085  -8.408  27.203  0.00  0.00    +0.000 C 
ATOM     34  CD1 LEU A   5      10.405  -7.520  26.972  0.00  0.00    +0.000 C 
ENDBRANCH  31  32
ENDBRANCH  10  31
ENDBRANCH   7  10
ENDBRANCH   5   6
ENDBRANCH   3   5
BRANCH   1  35
ATOM     35  CA  ILE A   3      12.380  -0.922  23.347  0.00  0.00    +0.149 C 
BRANCH  35  37
ATOM     36  C   VAL A   2      11.475   0.707  21.774  0.00  0.00    +0.241 C 
ATOM     37  N   ILE A   3      12.020   0.422  22.953  0.00  0.00    -0.297 N 
ATOM     38  H   ILE A   3      12.195   1.200  23.621  0.00  0.00    +0.150 HD
ATOM     39  O   VAL A   2      11.219  -0.139  20.937  0.00  0.00    -0.273 OA
BRANCH  36  40
ATOM     40  CA  VAL A   2      11.134   2.166  21.548  0.00  0.00    +0.148 C 
BRANCH  40  43
ATOM     41  C   ASN A   1      11.984   3.683  19.817  0.00  0.00    +0.239 C 
ATOM     42  O   ASN A   1      12.317   4.531  20.586  0.00  0.00    -0.274 OA
ATOM     43  N   VAL A   2      11.399   2.548  20.167  0.00  0.00    -0.297 N 
ATOM     44  H   VAL A   2      11.112   1.891  19.413  0.00  0.00    +0.150 HD
BRANCH  41  45
ATOM     45  CA  ASN A   1      12.266   3.853  18.372  0.00  0.00    +0.154 C 
BRANCH  45  46
ATOM     46  N   ASN A   1      11.466   2.975  17.496  0.00  0.00    -0.238 NA
ATOM     47  H   ASN A   1      10.485   3.249  17.288  0.00  0.00    +0.142 HD
ENDBRANCH  45  46
BRANCH  45  48
ATOM     48  CB  ASN A   1      12.073   5.305  17.981  0.00  0.00    +0.111 C 
BRANCH  48  49
ATOM     49  CG  ASN A   1      12.356   5.508  16.520  0.00  0.00    +0.221 C 
ATOM     50  ND2 ASN A   1      13.496   5.000  16.093  0.00  0.00    -0.329 N 
ATOM     51 HD21 ASN A   1      14.151   4.554  16.766  0.00  0.00    +0.145 HD
ATOM     52 HD22 ASN A   1      13.740   5.046  15.083  0.00  0.00    +0.145 HD
ATOM     53  OD1 ASN A   1      11.539   6.050  15.766  0.00  0.00    -0.275 OA
ENDBRANCH  48  49
ENDBRANCH  45  48
ENDBRANCH  41  45
ENDBRANCH  40  43
BRANCH  40  54
ATOM     54  CB  VAL A   2       9.635   2.402  21.925  0.00  0.00    +0.027 C 
ATOM     55  CG2 VAL A   2       9.408   2.284  23.435  0.00  0.00    +0.002 C 
ATOM     56  CG1 VAL A   2       9.233   3.743  21.489  0.00  0.00    +0.002 C 
ENDBRANCH  40  54
ENDBRANCH  36  40
ENDBRANCH  35  37
BRANCH  35  57
ATOM     57  CB  ILE A   3      12.900  -0.938  24.843  0.00  0.00    +0.027 C 
ATOM     58  CG2 ILE A   3      11.831  -0.407  25.803  0.00  0.00    +0.002 C 
BRANCH  57  59
ATOM     59  CG1 ILE A   3      13.268  -2.372  25.260  0.00  0.00    +0.002 C 
ATOM     60  CD1 ILE A   3      14.709  -2.598  25.586  0.00  0.00    +0.000 C 
ENDBRANCH  57  59
ENDBRANCH  35  57
ENDBRANCH   1  35
TORSDOF 25
REMARK  Name = ../refined-set-2016/2baj/2baj_pocket.pdb
REMARK  254 active torsions:
REMARK  status: ('A' for Active; 'I' for Inactive)
REMARK    1  A    between atoms: _1  and  _3
REMARK    2  A    between atoms: _3  and  _4
REMARK    3  A    between atoms: _3  and  _6
REMARK    4  A    between atoms: _6  and  _7
REMARK    5  A    between atoms: _17  and  _19
REMARK    6  A    between atoms: _19  and  _20
REMARK    7  A    between atoms: _19  and  _22
REMARK    8  A    between atoms: _25  and  _27
REMARK    9  A    between atoms: _27  and  _28
REMARK   10  A    between atoms: _27  and  _30
REMARK   11  A    between atoms: _30  and  _31
REMARK   12  A    between atoms: _36  and  _37
REMARK   13  A    between atoms: _39  and  _41
REMARK   14  A    between atoms: _41  and  _42
REMARK   15  A    between atoms: _41  and  _44
REMARK   16  A    between atoms: _44  and  _45
REMARK   17  A    between atoms: _47  and  _49
REMARK   18  A    between atoms: _49  and  _50
REMARK   19  A    between atoms: _49  and  _52
REMARK   20  A    between atoms: _55  and  _57
REMARK   21  A    between atoms: _57  and  _58
REMARK   22  A    between atoms: _57  and  _60
REMARK   23  A    between atoms: _62  and  _64
REMARK   24  A    between atoms: _64  and  _65
REMARK   25  A    between atoms: _68  and  _70
REMARK   26  A    between atoms: _70  and  _71
REMARK   27  A    between atoms: _70  and  _73
REMARK   28  A    between atoms: _76  and  _78
REMARK   29  A    between atoms: _78  and  _79
REMARK   30  A    between atoms: _82  and  _84
REMARK   31  A    between atoms: _84  and  _85
REMARK   32  A    between atoms: _84  and  _87
REMARK   33  A    between atoms: _90  and  _92
REMARK   34  A    between atoms: _92  and  _93
REMARK   35  A    between atoms: _92  and  _95
REMARK   36  A    between atoms: _95  and  _96
REMARK   37  A    between atoms: _96  and  _97
REMARK   38  A    between atoms: _97  and  _98
REMARK   39  A    between atoms: _98  and  _99
REMARK   40  A    between atoms: _103  and  _105
REMARK   41  A    between atoms: _105  and  _106
REMARK   42  A    between atoms: _105  and  _108
REMARK   43  A    between atoms: _108  and  _109
REMARK   44  A    between atoms: _109  and  _110
REMARK   45  A    between atoms: _110  and  _111
REMARK   46  A    between atoms: _111  and  _112
REMARK   47  A    between atoms: _116  and  _118
REMARK   48  A    between atoms: _118  and  _119
REMARK   49  A    between atoms: _118  and  _121
REMARK   50  A    between atoms: _121  and  _122
REMARK   51  A    between atoms: _125  and  _127
REMARK   52  A    between atoms: _127  and  _128
REMARK   53  A    between atoms: _127  and  _130
REMARK   54  A    between atoms: _130  and  _131
REMARK   55  A    between atoms: _131  and  _132
REMARK   56  A    between atoms: _132  and  _133
REMARK   57  A    between atoms: _133  and  _134
REMARK   58  A    between atoms: _138  and  _140
REMARK   59  A    between atoms: _140  and  _141
REMARK   60  A    between atoms: _140  and  _143
REMARK   61  A    between atoms: _143  and  _144
REMARK   62  A    between atoms: _144  and  _145
REMARK   63  A    between atoms: _145  and  _146
REMARK   64  A    between atoms: _155  and  _157
REMARK   65  A    between atoms: _157  and  _158
REMARK   66  A    between atoms: _157  and  _160
REMARK   67  A    between atoms: _160  and  _161
REMARK   68  A    between atoms: _164  and  _166
REMARK   69  A    between atoms: _166  and  _167
REMARK   70  A    between atoms: _166  and  _169
REMARK   71  A    between atoms: _169  and  _170
REMARK   72  A    between atoms: _175  and  _176
REMARK   73  A    between atoms: _178  and  _180
REMARK   74  A    between atoms: _180  and  _181
REMARK   75  A    between atoms: _180  and  _183
REMARK   76  A    between atoms: _183  and  _184
REMARK   77  A    between atoms: _184  and  _185
REMARK   78  A    between atoms: _185  and  _186
REMARK   79  A    between atoms: _195  and  _197
REMARK   80  A    between atoms: _197  and  _198
REMARK   81  A    between atoms: _197  and  _200
REMARK   82  A    between atoms: _200  and  _201
REMARK   83  A    between atoms: _201  and  _202
REMARK   84  A    between atoms: _205  and  _207
REMARK   85  A    between atoms: _207  and  _208
REMARK   86  A    between atoms: _207  and  _210
REMARK   87  A    between atoms: _210  and  _211
REMARK   88  A    between atoms: _214  and  _216
REMARK   89  A    between atoms: _216  and  _217
REMARK   90  A    between atoms: _216  and  _219
REMARK   91  A    between atoms: _219  and  _220
REMARK   92  A    between atoms: _220  and  _221
REMARK   93  A    between atoms: _221  and  _222
REMARK   94  A    between atoms: _231  and  _233
REMARK   95  A    between atoms: _233  and  _234
REMARK   96  A    between atoms: _233  and  _236
REMARK   97  A    between atoms: _236  and  _237
REMARK   98  A    between atoms: _240  and  _242
REMARK   99  A    between atoms: _242  and  _243
REMARK  100  A    between atoms: _242  and  _245
REMARK  101  A    between atoms: _245  and  _246
REMARK  102  A    between atoms: _249  and  _251
REMARK  103  A    between atoms: _251  and  _252
REMARK  104  A    between atoms: _251  and  _254
REMARK  105  A    between atoms: _254  and  _255
REMARK  106  A    between atoms: _260  and  _262
REMARK  107  A    between atoms: _262  and  _263
REMARK  108  A    between atoms: _262  and  _265
REMARK  109  A    between atoms: _265  and  _266
REMARK  110  A    between atoms: _266  and  _267
REMARK  111  A    between atoms: _269  and  _271
REMARK  112  A    between atoms: _271  and  _272
REMARK  113  A    between atoms: _271  and  _274
REMARK  114  A    between atoms: _274  and  _275
REMARK  115  A    between atoms: _280  and  _282
REMARK  116  A    between atoms: _282  and  _283
REMARK  117  A    between atoms: _282  and  _285
REMARK  118  A    between atoms: _288  and  _290
REMARK  119  A    between atoms: _290  and  _291
REMARK  120  A    between atoms: _290  and  _293
REMARK  121  A    between atoms: _293  and  _294
REMARK  122  A    between atoms: _297  and  _299
REMARK  123  A    between atoms: _299  and  _300
REMARK  124  A    between atoms: _302  and  _304
REMARK  125  A    between atoms: _304  and  _305
REMARK  126  A    between atoms: _304  and  _307
REMARK  127  A    between atoms: _307  and  _308
REMARK  128  A    between atoms: _311  and  _313
REMARK  129  A    between atoms: _313  and  _314
REMARK  130  A    between atoms: _313  and  _316
REMARK  131  A    between atoms: _316  and  _317
REMARK  132  A    between atoms: _320  and  _322
REMARK  133  A    between atoms: _322  and  _323
REMARK  134  A    between atoms: _322  and  _325
REMARK  135  A    between atoms: _325  and  _326
REMARK  136  A    between atoms: _329  and  _331
REMARK  137  A    between atoms: _331  and  _332
REMARK  138  A    between atoms: _331  and  _334
REMARK  139  A    between atoms: _334  and  _335
REMARK  140  A    between atoms: _340  and  _341
REMARK  141  A    between atoms: _343  and  _345
REMARK  142  A    between atoms: _345  and  _346
REMARK  143  A    between atoms: _345  and  _348
REMARK  144  A    between atoms: _348  and  _349
REMARK  145  A    between atoms: _352  and  _354
REMARK  146  A    between atoms: _354  and  _355
REMARK  147  A    between atoms: _354  and  _357
REMARK  148  A    between atoms: _360  and  _362
REMARK  149  A    between atoms: _362  and  _363
REMARK  150  A    between atoms: _362  and  _365
REMARK  151  A    between atoms: _365  and  _366
REMARK  152  A    between atoms: _369  and  _371
REMARK  153  A    between atoms: _371  and  _372
REMARK  154  A    between atoms: _371  and  _374
REMARK  155  A    between atoms: _374  and  _375
REMARK  156  A    between atoms: _380  and  _382
REMARK  157  A    between atoms: _382  and  _383
REMARK  158  A    between atoms: _382  and  _385
REMARK  159  A    between atoms: _385  and  _386
REMARK  160  A    between atoms: _389  and  _391
REMARK  161  A    between atoms: _391  and  _392
REMARK  162  A    between atoms: _391  and  _394
REMARK  163  A    between atoms: _394  and  _395
REMARK  164  A    between atoms: _395  and  _396
REMARK  165  A    between atoms: _398  and  _400
REMARK  166  A    between atoms: _400  and  _401
REMARK  167  A    between atoms: _403  and  _405
REMARK  168  A    between atoms: _405  and  _406
REMARK  169  A    between atoms: _405  and  _408
REMARK  170  A    between atoms: _408  and  _409
REMARK  171  A    between atoms: _412  and  _414
REMARK  172  A    between atoms: _414  and  _415
REMARK  173  A    between atoms: _414  and  _417
REMARK  174  A    between atoms: _417  and  _418
REMARK  175  A    between atoms: _423  and  _424
REMARK  176  A    between atoms: _426  and  _428
REMARK  177  A    between atoms: _428  and  _429
REMARK  178  A    between atoms: _428  and  _431
REMARK  179  A    between atoms: _431  and  _432
REMARK  180  A    between atoms: _435  and  _437
REMARK  181  A    between atoms: _437  and  _438
REMARK  182  A    between atoms: _437  and  _440
REMARK  183  A    between atoms: _440  and  _441
REMARK  184  A    between atoms: _444  and  _446
REMARK  185  A    between atoms: _446  and  _447
REMARK  186  A    between atoms: _446  and  _449
REMARK  187  A    between atoms: _449  and  _450
REMARK  188  A    between atoms: _453  and  _455
REMARK  189  A    between atoms: _455  and  _456
REMARK  190  A    between atoms: _455  and  _458
REMARK  191  A    between atoms: _458  and  _459
REMARK  192  A    between atoms: _464  and  _466
REMARK  193  A    between atoms: _466  and  _467
REMARK  194  A    between atoms: _466  and  _469
REMARK  195  A    between atoms: _469  and  _470
REMARK  196  A    between atoms: _470  and  _471
REMARK  197  A    between atoms: _471  and  _472
REMARK  198  A    between atoms: _481  and  _483
REMARK  199  A    between atoms: _483  and  _484
REMARK  200  A    between atoms: _483  and  _486
REMARK  201  A    between atoms: _486  and  _487
REMARK  202  A    between atoms: _490  and  _492
REMARK  203  A    between atoms: _492  and  _493
REMARK  204  A    between atoms: _492  and  _495
REMARK  205  A    between atoms: _495  and  _496
REMARK  206  A    between atoms: _499  and  _501
REMARK  207  A    between atoms: _501  and  _502
REMARK  208  A    between atoms: _501  and  _504
REMARK  209  A    between atoms: _504  and  _505
REMARK  210  A    between atoms: _507  and  _509
REMARK  211  A    between atoms: _509  and  _510
REMARK  212  A    between atoms: _509  and  _512
REMARK  213  A    between atoms: _512  and  _513
REMARK  214  A    between atoms: _518  and  _520
REMARK  215  A    between atoms: _520  and  _521
REMARK  216  A    between atoms: _524  and  _526
REMARK  217  A    between atoms: _526  and  _527
REMARK  218  A    between atoms: _526  and  _529
REMARK  219  A    between atoms: _529  and  _530
REMARK  220  A    between atoms: _530  and  _531
REMARK  221  A    between atoms: _531  and  _532
REMARK  222  A    between atoms: _532  and  _533
REMARK  223  A    between atoms: _537  and  _539
REMARK  224  A    between atoms: _539  and  _540
REMARK  225  A    between atoms: _539  and  _542
REMARK  226  A    between atoms: _542  and  _543
REMARK  227  A    between atoms: _546  and  _548
REMARK  228  A    between atoms: _548  and  _549
REMARK  229  A    between atoms: _548  and  _551
REMARK  230  A    between atoms: _551  and  _552
REMARK  231  A    between atoms: _555  and  _557
REMARK  232  A    between atoms: _557  and  _558
REMARK  233  A    between atoms: _557  and  _560
REMARK  234  A    between atoms: _560  and  _561
REMARK  235  A    between atoms: _564  and  _566
REMARK  236  A    between atoms: _566  and  _567
REMARK  237  A    between atoms: _566  and  _569
REMARK  238  A    between atoms: _569  and  _570
REMARK  239  A    between atoms: _576  and  _578
REMARK  240  A    between atoms: _578  and  _579
REMARK  241  A    between atoms: _581  and  _583
REMARK  242  A    between atoms: _583  and  _584
REMARK  243  A    between atoms: _583  and  _586
REMARK  244  A    between atoms: _586  and  _587
REMARK  245  A    between atoms: _590  and  _592
REMARK  246  A    between atoms: _592  and  _593
REMARK  247  A    between atoms: _596  and  _598
REMARK  248  A    between atoms: _598  and  _599
REMARK  249  A    between atoms: _598  and  _601
REMARK  250  A    between atoms: _601  and  _602
REMARK  251  A    between atoms: _607  and  _609
REMARK  252  A    between atoms: _609  and  _610
REMARK  253  A    between atoms: _609  and  _612
REMARK  254  A    between atoms: _612  and  _613
REMARK                            x       y       z     vdW  Elec       q    Type
REMARK                         _______ _______ _______ _____ _____    ______ ____
ROOT
ATOM      1  CA  THR A   4      15.214  -7.485  23.894  0.00  0.00    +0.176 C 
ENDROOT
BRANCH   1   3
ATOM      2  C   VAL A   3      14.365  -9.184  25.406  0.00  0.00    +0.241 C 
ATOM      3  N   THR A   4      15.345  -8.368  25.049  0.00  0.00    -0.295 N 
ATOM      4  H   THR A   4      16.225  -8.356  25.602  0.00  0.00    +0.150 HD
ATOM      5  O   VAL A   3      13.258  -9.170  24.877  0.00  0.00    -0.273 OA
BRANCH   2   6
ATOM      6  CA  VAL A   3      14.678 -10.211  26.462  0.00  0.00    +0.149 C 
BRANCH   6   9
ATOM      7  C   LEU A   2      13.953  -9.990  28.732  0.00  0.00    +0.241 C 
ATOM      8  O   LEU A   2      15.081  -9.715  29.073  0.00  0.00    -0.273 OA
ATOM      9  N   VAL A   3      13.648 -10.164  27.466  0.00  0.00    -0.297 N 
ATOM     10  H   VAL A   3      12.652 -10.269  27.186  0.00  0.00    +0.150 HD
BRANCH   7  11
ATOM     11  CA  LEU A   2      12.824 -10.130  29.748  0.00  0.00    +0.149 C 
BRANCH  11  13
ATOM     12  C   TYR A   1      12.843 -11.929  31.455  0.00  0.00    +0.239 C 
ATOM     13  N   LEU A   2      13.302 -10.746  31.003  0.00  0.00    -0.297 N 
ATOM     14  H   LEU A   2      14.023 -10.245  31.561  0.00  0.00    +0.150 HD
ATOM     15  O   TYR A   1      11.973 -12.562  30.892  0.00  0.00    -0.274 OA
BRANCH  12  16
ATOM     16  CA  TYR A   1      13.421 -12.507  32.743  0.00  0.00    +0.149 C 
BRANCH  16  17
ATOM     17  N   TYR A   1      12.295 -12.769  33.621  0.00  0.00    -0.238 NA
ATOM     18  H   TYR A   1      11.451 -13.212  33.205  0.00  0.00    +0.142 HD
ENDBRANCH  16  17
BRANCH  16  19
ATOM     19  CB  TYR A   1      14.127 -13.812  32.381  0.00  0.00    +0.053 C 
BRANCH  19  20
ATOM     20  CG  TYR A   1      14.899 -14.498  33.477  0.00  0.00    -0.020 A 
ATOM     21  CD2 TYR A   1      14.269 -15.309  34.402  0.00  0.00    -0.001 A 
ATOM     22  CE2 TYR A   1      15.009 -15.962  35.445  0.00  0.00    +0.036 A 
ATOM     23  CZ  TYR A   1      16.397 -15.804  35.506  0.00  0.00    +0.134 A 
ATOM     24  CE1 TYR A   1      17.028 -15.015  34.580  0.00  0.00    +0.036 A 
ATOM     25  CD1 TYR A   1      16.278 -14.370  33.560  0.00  0.00    -0.001 A 
BRANCH  23  26
ATOM     26  OH  TYR A   1      17.144 -16.430  36.468  0.00  0.00    -0.506 OA
ATOM     27  HH  TYR A   1      16.547 -16.958  37.056  0.00  0.00    +0.292 HD
ENDBRANCH  23  26
ENDBRANCH  19  20
ENDBRANCH  16  19
ENDBRANCH  12  16
ENDBRANCH  11  13
BRANCH  11  28
ATOM     28  CB  LEU A   2      12.219  -8.764  30.034  0.00  0.00    +0.029 C 
BRANCH  28  29
ATOM     29  CG  LEU A   2      11.416  -8.671  31.367  0.00  0.00    +0.002 C 
ATOM     30  CD2 LEU A   2      11.558  -7.345  32.042  0.00  0.00    +0.000 C 
ATOM     31  CD1 LEU A   2       9.987  -8.895  31.114  0.00  0.00    +0.000 C 
ENDBRANCH  28  29
ENDBRANCH  11  28
ENDBRANCH   7  11
ENDBRANCH   6   9
BRANCH   6  32
ATOM     32  CB  VAL A   3      14.707 -11.577  25.784  0.00  0.00    +0.027 C 
ATOM     33  CG2 VAL A   3      14.816 -12.651  26.800  0.00  0.00    +0.002 C 
ATOM     34  CG1 VAL A   3      15.843 -11.648  24.778  0.00  0.00    +0.002 C 
ENDBRANCH   6  32
ENDBRANCH   2   6
ENDBRANCH   1   3
BRANCH   1  35
ATOM     35  C   THR A   4      16.445  -7.536  22.981  0.00  0.00    +0.243 C 
ATOM     36  O   THR A   4      17.397  -8.243  23.284  0.00  0.00    -0.273 OA
ATOM     37  N   HIS A   5      16.417  -6.777  21.882  0.00  0.00    -0.297 N 
ATOM     38  H   HIS A   5      15.514  -6.352  21.588  0.00  0.00    +0.150 HD
BRANCH  37  39
ATOM     39  CA  HIS A   5      17.615  -6.522  21.076  0.00  0.00    +0.155 C 
BRANCH  39  40
ATOM     40  C   HIS A   5      18.678  -5.787  21.841  0.00  0.00    +0.241 C 
ATOM     41  O   HIS A   5      18.397  -4.831  22.575  0.00  0.00    -0.273 OA
ATOM     42  N   LEU A   6      19.909  -6.245  21.657  0.00  0.00    -0.297 N 
ATOM     43  H   LEU A   6      20.040  -7.151  21.164  0.00  0.00    +0.150 HD
BRANCH  42  44
ATOM     44  CA  LEU A   6      21.075  -5.524  22.120  0.00  0.00    +0.149 C 
BRANCH  44  45
ATOM     45  C   LEU A   6      21.323  -4.559  20.976  0.00  0.00    +0.241 C 
ATOM     46  N   MET A   7      21.371  -3.276  21.295  0.00  0.00    -0.298 N 
ATOM     47  H   MET A   7      21.182  -2.986  22.276  0.00  0.00    +0.150 HD
ATOM     48  O   LEU A   6      21.401  -4.968  19.804  0.00  0.00    -0.273 OA
BRANCH  46  49
ATOM     49  CA  MET A   7      21.686  -2.254  20.289  0.00  0.00    +0.138 C 
BRANCH  49  50
ATOM     50  C   MET A   7      23.150  -1.853  20.531  0.00  0.00    +0.227 C 
ATOM     51  O   MET A   7      23.558  -1.680  21.700  0.00  0.00    -0.286 OA
ENDBRANCH  49  50
BRANCH  49  52
ATOM     52  CB  MET A   7      20.736  -1.041  20.421  0.00  0.00    +0.039 C 
BRANCH  52  53
ATOM     53  CG  MET A   7      19.242  -1.385  20.419  0.00  0.00    +0.060 C 
BRANCH  53  54
ATOM     54  SD  MET A   7      18.587  -1.693  18.727  0.00  0.00    -0.139 S 
ATOM     55  CE  MET A   7      18.315  -0.056  18.158  0.00  0.00    +0.069 C 
ENDBRANCH  53  54
ENDBRANCH  52  53
ENDBRANCH  49  52
ENDBRANCH  46  49
ENDBRANCH  44  45
BRANCH  44  56
ATOM     56  CB  LEU A   6      22.254  -6.477  22.337  0.00  0.00    +0.029 C 
BRANCH  56  57
ATOM     57  CG  LEU A   6      23.536  -5.887  22.942  0.00  0.00    +0.002 C 
ATOM     58  CD2 LEU A   6      23.492  -5.878  24.486  0.00  0.00    +0.000 C 
ATOM     59  CD1 LEU A   6      24.772  -6.617  22.431  0.00  0.00    +0.000 C 
ENDBRANCH  56  57
ENDBRANCH  44  56
ENDBRANCH  42  44
ENDBRANCH  39  40
BRANCH  39  60
ATOM     60  CB  HIS A   5      17.311  -5.664  19.861  0.00  0.00    +0.076 C 
BRANCH  60  61
ATOM     61  CG  HIS A   5      16.459  -6.343  18.862  0.00  0.00    +0.082 A 
ATOM     62  CD2 HIS A   5      15.118  -6.328  18.681  0.00  0.00    +0.115 A 
ATOM     63  NE2 HIS A   5      14.847  -7.148  17.615  0.00  0.00    -0.221 NA
ATOM     64  CE1 HIS A   5      15.982  -7.655  17.163  0.00  0.00    +0.199 A 
ATOM     65  ND1 HIS A   5      16.973  -7.191  17.907  0.00  0.00    -0.227 NA
ENDBRANCH  60  61
ENDBRANCH  39  60
ENDBRANCH  37  39
ENDBRANCH   1  35
BRANCH   1  66
ATOM     66  CB  THR A   4      15.023  -6.063  24.393  0.00  0.00    +0.137 C 
ATOM     67  CG2 THR A   4      16.205  -5.644  25.301  0.00  0.00    +0.034 C 
BRANCH  66  68
ATOM     68  OG1 THR A   4      15.057  -5.162  23.276  0.00  0.00    -0.382 OA
ATOM     69  HG1 THR A   4      14.330  -5.393  22.645  0.00  0.00    +0.210 HD
ENDBRANCH  66  68
ENDBRANCH   1  66
TORSDOF 29
REMARK  Name = ../refined-set-2016/2baj/2baj_pocket.pdb
REMARK  254 active torsions:
REMARK  status: ('A' for Active; 'I' for Inactive)
REMARK    1  A    between atoms: _1  and  _3
REMARK    2  A    between atoms: _3  and  _4
REMARK    3  A    between atoms: _3  and  _6
REMARK    4  A    between atoms: _6  and  _7
REMARK    5  A    between atoms: _17  and  _19
REMARK    6  A    between atoms: _19  and  _20
REMARK    7  A    between atoms: _19  and  _22
REMARK    8  A    between atoms: _25  and  _27
REMARK    9  A    between atoms: _27  and  _28
REMARK   10  A    between atoms: _27  and  _30
REMARK   11  A    between atoms: _30  and  _31
REMARK   12  A    between atoms: _36  and  _37
REMARK   13  A    between atoms: _39  and  _41
REMARK   14  A    between atoms: _41  and  _42
REMARK   15  A    between atoms: _41  and  _44
REMARK   16  A    between atoms: _44  and  _45
REMARK   17  A    between atoms: _47  and  _49
REMARK   18  A    between atoms: _49  and  _50
REMARK   19  A    between atoms: _49  and  _52
REMARK   20  A    between atoms: _55  and  _57
REMARK   21  A    between atoms: _57  and  _58
REMARK   22  A    between atoms: _57  and  _60
REMARK   23  A    between atoms: _62  and  _64
REMARK   24  A    between atoms: _64  and  _65
REMARK   25  A    between atoms: _68  and  _70
REMARK   26  A    between atoms: _70  and  _71
REMARK   27  A    between atoms: _70  and  _73
REMARK   28  A    between atoms: _76  and  _78
REMARK   29  A    between atoms: _78  and  _79
REMARK   30  A    between atoms: _82  and  _84
REMARK   31  A    between atoms: _84  and  _85
REMARK   32  A    between atoms: _84  and  _87
REMARK   33  A    between atoms: _90  and  _92
REMARK   34  A    between atoms: _92  and  _93
REMARK   35  A    between atoms: _92  and  _95
REMARK   36  A    between atoms: _95  and  _96
REMARK   37  A    between atoms: _96  and  _97
REMARK   38  A    between atoms: _97  and  _98
REMARK   39  A    between atoms: _98  and  _99
REMARK   40  A    between atoms: _103  and  _105
REMARK   41  A    between atoms: _105  and  _106
REMARK   42  A    between atoms: _105  and  _108
REMARK   43  A    between atoms: _108  and  _109
REMARK   44  A    between atoms: _109  and  _110
REMARK   45  A    between atoms: _110  and  _111
REMARK   46  A    between atoms: _111  and  _112
REMARK   47  A    between atoms: _116  and  _118
REMARK   48  A    between atoms: _118  and  _119
REMARK   49  A    between atoms: _118  and  _121
REMARK   50  A    between atoms: _121  and  _122
REMARK   51  A    between atoms: _125  and  _127
REMARK   52  A    between atoms: _127  and  _128
REMARK   53  A    between atoms: _127  and  _130
REMARK   54  A    between atoms: _130  and  _131
REMARK   55  A    between atoms: _131  and  _132
REMARK   56  A    between atoms: _132  and  _133
REMARK   57  A    between atoms: _133  and  _134
REMARK   58  A    between atoms: _138  and  _140
REMARK   59  A    between atoms: _140  and  _141
REMARK   60  A    between atoms: _140  and  _143
REMARK   61  A    between atoms: _143  and  _144
REMARK   62  A    between atoms: _144  and  _145
REMARK   63  A    between atoms: _145  and  _146
REMARK   64  A    between atoms: _155  and  _157
REMARK   65  A    between atoms: _157  and  _158
REMARK   66  A    between atoms: _157  and  _160
REMARK   67  A    between atoms: _160  and  _161
REMARK   68  A    between atoms: _164  and  _166
REMARK   69  A    between atoms: _166  and  _167
REMARK   70  A    between atoms: _166  and  _169
REMARK   71  A    between atoms: _169  and  _170
REMARK   72  A    between atoms: _175  and  _176
REMARK   73  A    between atoms: _178  and  _180
REMARK   74  A    between atoms: _180  and  _181
REMARK   75  A    between atoms: _180  and  _183
REMARK   76  A    between atoms: _183  and  _184
REMARK   77  A    between atoms: _184  and  _185
REMARK   78  A    between atoms: _185  and  _186
REMARK   79  A    between atoms: _195  and  _197
REMARK   80  A    between atoms: _197  and  _198
REMARK   81  A    between atoms: _197  and  _200
REMARK   82  A    between atoms: _200  and  _201
REMARK   83  A    between atoms: _201  and  _202
REMARK   84  A    between atoms: _205  and  _207
REMARK   85  A    between atoms: _207  and  _208
REMARK   86  A    between atoms: _207  and  _210
REMARK   87  A    between atoms: _210  and  _211
REMARK   88  A    between atoms: _214  and  _216
REMARK   89  A    between atoms: _216  and  _217
REMARK   90  A    between atoms: _216  and  _219
REMARK   91  A    between atoms: _219  and  _220
REMARK   92  A    between atoms: _220  and  _221
REMARK   93  A    between atoms: _221  and  _222
REMARK   94  A    between atoms: _231  and  _233
REMARK   95  A    between atoms: _233  and  _234
REMARK   96  A    between atoms: _233  and  _236
REMARK   97  A    between atoms: _236  and  _237
REMARK   98  A    between atoms: _240  and  _242
REMARK   99  A    between atoms: _242  and  _243
REMARK  100  A    between atoms: _242  and  _245
REMARK  101  A    between atoms: _245  and  _246
REMARK  102  A    between atoms: _249  and  _251
REMARK  103  A    between atoms: _251  and  _252
REMARK  104  A    between atoms: _251  and  _254
REMARK  105  A    between atoms: _254  and  _255
REMARK  106  A    between atoms: _260  and  _262
REMARK  107  A    between atoms: _262  and  _263
REMARK  108  A    between atoms: _262  and  _265
REMARK  109  A    between atoms: _265  and  _266
REMARK  110  A    between atoms: _266  and  _267
REMARK  111  A    between atoms: _269  and  _271
REMARK  112  A    between atoms: _271  and  _272
REMARK  113  A    between atoms: _271  and  _274
REMARK  114  A    between atoms: _274  and  _275
REMARK  115  A    between atoms: _280  and  _282
REMARK  116  A    between atoms: _282  and  _283
REMARK  117  A    between atoms: _282  and  _285
REMARK  118  A    between atoms: _288  and  _290
REMARK  119  A    between atoms: _290  and  _291
REMARK  120  A    between atoms: _290  and  _293
REMARK  121  A    between atoms: _293  and  _294
REMARK  122  A    between atoms: _297  and  _299
REMARK  123  A    between atoms: _299  and  _300
REMARK  124  A    between atoms: _302  and  _304
REMARK  125  A    between atoms: _304  and  _305
REMARK  126  A    between atoms: _304  and  _307
REMARK  127  A    between atoms: _307  and  _308
REMARK  128  A    between atoms: _311  and  _313
REMARK  129  A    between atoms: _313  and  _314
REMARK  130  A    between atoms: _313  and  _316
REMARK  131  A    between atoms: _316  and  _317
REMARK  132  A    between atoms: _320  and  _322
REMARK  133  A    between atoms: _322  and  _323
REMARK  134  A    between atoms: _322  and  _325
REMARK  135  A    between atoms: _325  and  _326
REMARK  136  A    between atoms: _329  and  _331
REMARK  137  A    between atoms: _331  and  _332
REMARK  138  A    between atoms: _331  and  _334
REMARK  139  A    between atoms: _334  and  _335
REMARK  140  A    between atoms: _340  and  _341
REMARK  141  A    between atoms: _343  and  _345
REMARK  142  A    between atoms: _345  and  _346
REMARK  143  A    between atoms: _345  and  _348
REMARK  144  A    between atoms: _348  and  _349
REMARK  145  A    between atoms: _352  and  _354
REMARK  146  A    between atoms: _354  and  _355
REMARK  147  A    between atoms: _354  and  _357
REMARK  148  A    between atoms: _360  and  _362
REMARK  149  A    between atoms: _362  and  _363
REMARK  150  A    between atoms: _362  and  _365
REMARK  151  A    between atoms: _365  and  _366
REMARK  152  A    between atoms: _369  and  _371
REMARK  153  A    between atoms: _371  and  _372
REMARK  154  A    between atoms: _371  and  _374
REMARK  155  A    between atoms: _374  and  _375
REMARK  156  A    between atoms: _380  and  _382
REMARK  157  A    between atoms: _382  and  _383
REMARK  158  A    between atoms: _382  and  _385
REMARK  159  A    between atoms: _385  and  _386
REMARK  160  A    between atoms: _389  and  _391
REMARK  161  A    between atoms: _391  and  _392
REMARK  162  A    between atoms: _391  and  _394
REMARK  163  A    between atoms: _394  and  _395
REMARK  164  A    between atoms: _395  and  _396
REMARK  165  A    between atoms: _398  and  _400
REMARK  166  A    between atoms: _400  and  _401
REMARK  167  A    between atoms: _403  and  _405
REMARK  168  A    between atoms: _405  and  _406
REMARK  169  A    between atoms: _405  and  _408
REMARK  170  A    between atoms: _408  and  _409
REMARK  171  A    between atoms: _412  and  _414
REMARK  172  A    between atoms: _414  and  _415
REMARK  173  A    between atoms: _414  and  _417
REMARK  174  A    between atoms: _417  and  _418
REMARK  175  A    between atoms: _423  and  _424
REMARK  176  A    between atoms: _426  and  _428
REMARK  177  A    between atoms: _428  and  _429
REMARK  178  A    between atoms: _428  and  _431
REMARK  179  A    between atoms: _431  and  _432
REMARK  180  A    between atoms: _435  and  _437
REMARK  181  A    between atoms: _437  and  _438
REMARK  182  A    between atoms: _437  and  _440
REMARK  183  A    between atoms: _440  and  _441
REMARK  184  A    between atoms: _444  and  _446
REMARK  185  A    between atoms: _446  and  _447
REMARK  186  A    between atoms: _446  and  _449
REMARK  187  A    between atoms: _449  and  _450
REMARK  188  A    between atoms: _453  and  _455
REMARK  189  A    between atoms: _455  and  _456
REMARK  190  A    between atoms: _455  and  _458
REMARK  191  A    between atoms: _458  and  _459
REMARK  192  A    between atoms: _464  and  _466
REMARK  193  A    between atoms: _466  and  _467
REMARK  194  A    between atoms: _466  and  _469
REMARK  195  A    between atoms: _469  and  _470
REMARK  196  A    between atoms: _470  and  _471
REMARK  197  A    between atoms: _471  and  _472
REMARK  198  A    between atoms: _481  and  _483
REMARK  199  A    between atoms: _483  and  _484
REMARK  200  A    between atoms: _483  and  _486
REMARK  201  A    between atoms: _486  and  _487
REMARK  202  A    between atoms: _490  and  _492
REMARK  203  A    between atoms: _492  and  _493
REMARK  204  A    between atoms: _492  and  _495
REMARK  205  A    between atoms: _495  and  _496
REMARK  206  A    between atoms: _499  and  _501
REMARK  207  A    between atoms: _501  and  _502
REMARK  208  A    between atoms: _501  and  _504
REMARK  209  A    between atoms: _504  and  _505
REMARK  210  A    between atoms: _507  and  _509
REMARK  211  A    between atoms: _509  and  _510
REMARK  212  A    between atoms: _509  and  _512
REMARK  213  A    between atoms: _512  and  _513
REMARK  214  A    between atoms: _518  and  _520
REMARK  215  A    between atoms: _520  and  _521
REMARK  216  A    between atoms: _524  and  _526
REMARK  217  A    between atoms: _526  and  _527
REMARK  218  A    between atoms: _526  and  _529
REMARK  219  A    between atoms: _529  and  _530
REMARK  220  A    between atoms: _530  and  _531
REMARK  221  A    between atoms: _531  and  _532
REMARK  222  A    between atoms: _532  and  _533
REMARK  223  A    between atoms: _537  and  _539
REMARK  224  A    between atoms: _539  and  _540
REMARK  225  A    between atoms: _539  and  _542
REMARK  226  A    between atoms: _542  and  _543
REMARK  227  A    between atoms: _546  and  _548
REMARK  228  A    between atoms: _548  and  _549
REMARK  229  A    between atoms: _548  and  _551
REMARK  230  A    between atoms: _551  and  _552
REMARK  231  A    between atoms: _555  and  _557
REMARK  232  A    between atoms: _557  and  _558
REMARK  233  A    between atoms: _557  and  _560
REMARK  234  A    between atoms: _560  and  _561
REMARK  235  A    between atoms: _564  and  _566
REMARK  236  A    between atoms: _566  and  _567
REMARK  237  A    between atoms: _566  and  _569
REMARK  238  A    between atoms: _569  and  _570
REMARK  239  A    between atoms: _576  and  _578
REMARK  240  A    between atoms: _578  and  _579
REMARK  241  A    between atoms: _581  and  _583
REMARK  242  A    between atoms: _583  and  _584
REMARK  243  A    between atoms: _583  and  _586
REMARK  244  A    between atoms: _586  and  _587
REMARK  245  A    between atoms: _590  and  _592
REMARK  246  A    between atoms: _592  and  _593
REMARK  247  A    between atoms: _596  and  _598
REMARK  248  A    between atoms: _598  and  _599
REMARK  249  A    between atoms: _598  and  _601
REMARK  250  A    between atoms: _601  and  _602
REMARK  251  A    between atoms: _607  and  _609
REMARK  252  A    between atoms: _609  and  _610
REMARK  253  A    between atoms: _609  and  _612
REMARK  254  A    between atoms: _612  and  _613
REMARK                            x       y       z     vdW  Elec       q    Type
REMARK                         _______ _______ _______ _____ _____    ______ ____
ROOT
ATOM      1  C   GLY A   1       8.739   8.008  21.167  0.00  0.00    +0.240 C 
ATOM      2  O   GLY A   1       7.938   7.314  21.812  0.00  0.00    -0.274 OA
ATOM      3  N   LEU A   2       9.029   9.269  21.461  0.00  0.00    -0.298 N 
ATOM      4  H   LEU A   2       9.782   9.742  20.921  0.00  0.00    +0.150 HD
ENDROOT
BRANCH   1   5
ATOM      5  CA  GLY A   1       9.468   7.415  20.007  0.00  0.00    +0.169 C 
BRANCH   5   6
ATOM      6  N   GLY A   1       9.755   8.381  18.980  0.00  0.00    -0.236 NA
ATOM      7  H   GLY A   1      10.718   8.768  18.907  0.00  0.00    +0.142 HD
ENDBRANCH   5   6
ENDBRANCH   1   5
BRANCH   3   8
ATOM      8  CA  LEU A   2       8.341  10.029  22.509  0.00  0.00    +0.137 C 
BRANCH   8   9
ATOM      9  C   LEU A   2       6.888  10.393  22.198  0.00  0.00    +0.227 C 
ATOM     10  O   LEU A   2       6.052  10.390  23.123  0.00  0.00    -0.286 OA
ENDBRANCH   8   9
BRANCH   8  11
ATOM     11  CB  LEU A   2       9.058  11.330  22.770  0.00  0.00    +0.028 C 
BRANCH  11  12
ATOM     12  CG  LEU A   2       9.917  11.448  24.014  0.00  0.00    +0.002 C 
ATOM     13  CD2 LEU A   2       9.396  10.617  25.175  0.00  0.00    +0.000 C 
ATOM     14  CD1 LEU A   2      10.008  12.930  24.347  0.00  0.00    +0.000 C 
ENDBRANCH  11  12
ENDBRANCH   8  11
ENDBRANCH   3   8
TORSDOF 6
REMARK  Name = ../refined-set-2016/2baj/2baj_pocket.pdb
REMARK  254 active torsions:
REMARK  status: ('A' for Active; 'I' for Inactive)
REMARK    1  A    between atoms: _1  and  _3
REMARK    2  A    between atoms: _3  and  _4
REMARK    3  A    between atoms: _3  and  _6
REMARK    4  A    between atoms: _6  and  _7
REMARK    5  A    between atoms: _17  and  _19
REMARK    6  A    between atoms: _19  and  _20
REMARK    7  A    between atoms: _19  and  _22
REMARK    8  A    between atoms: _25  and  _27
REMARK    9  A    between atoms: _27  and  _28
REMARK   10  A    between atoms: _27  and  _30
REMARK   11  A    between atoms: _30  and  _31
REMARK   12  A    between atoms: _36  and  _37
REMARK   13  A    between atoms: _39  and  _41
REMARK   14  A    between atoms: _41  and  _42
REMARK   15  A    between atoms: _41  and  _44
REMARK   16  A    between atoms: _44  and  _45
REMARK   17  A    between atoms: _47  and  _49
REMARK   18  A    between atoms: _49  and  _50
REMARK   19  A    between atoms: _49  and  _52
REMARK   20  A    between atoms: _55  and  _57
REMARK   21  A    between atoms: _57  and  _58
REMARK   22  A    between atoms: _57  and  _60
REMARK   23  A    between atoms: _62  and  _64
REMARK   24  A    between atoms: _64  and  _65
REMARK   25  A    between atoms: _68  and  _70
REMARK   26  A    between atoms: _70  and  _71
REMARK   27  A    between atoms: _70  and  _73
REMARK   28  A    between atoms: _76  and  _78
REMARK   29  A    between atoms: _78  and  _79
REMARK   30  A    between atoms: _82  and  _84
REMARK   31  A    between atoms: _84  and  _85
REMARK   32  A    between atoms: _84  and  _87
REMARK   33  A    between atoms: _90  and  _92
REMARK   34  A    between atoms: _92  and  _93
REMARK   35  A    between atoms: _92  and  _95
REMARK   36  A    between atoms: _95  and  _96
REMARK   37  A    between atoms: _96  and  _97
REMARK   38  A    between atoms: _97  and  _98
REMARK   39  A    between atoms: _98  and  _99
REMARK   40  A    between atoms: _103  and  _105
REMARK   41  A    between atoms: _105  and  _106
REMARK   42  A    between atoms: _105  and  _108
REMARK   43  A    between atoms: _108  and  _109
REMARK   44  A    between atoms: _109  and  _110
REMARK   45  A    between atoms: _110  and  _111
REMARK   46  A    between atoms: _111  and  _112
REMARK   47  A    between atoms: _116  and  _118
REMARK   48  A    between atoms: _118  and  _119
REMARK   49  A    between atoms: _118  and  _121
REMARK   50  A    between atoms: _121  and  _122
REMARK   51  A    between atoms: _125  and  _127
REMARK   52  A    between atoms: _127  and  _128
REMARK   53  A    between atoms: _127  and  _130
REMARK   54  A    between atoms: _130  and  _131
REMARK   55  A    between atoms: _131  and  _132
REMARK   56  A    between atoms: _132  and  _133
REMARK   57  A    between atoms: _133  and  _134
REMARK   58  A    between atoms: _138  and  _140
REMARK   59  A    between atoms: _140  and  _141
REMARK   60  A    between atoms: _140  and  _143
REMARK   61  A    between atoms: _143  and  _144
REMARK   62  A    between atoms: _144  and  _145
REMARK   63  A    between atoms: _145  and  _146
REMARK   64  A    between atoms: _155  and  _157
REMARK   65  A    between atoms: _157  and  _158
REMARK   66  A    between atoms: _157  and  _160
REMARK   67  A    between atoms: _160  and  _161
REMARK   68  A    between atoms: _164  and  _166
REMARK   69  A    between atoms: _166  and  _167
REMARK   70  A    between atoms: _166  and  _169
REMARK   71  A    between atoms: _169  and  _170
REMARK   72  A    between atoms: _175  and  _176
REMARK   73  A    between atoms: _178  and  _180
REMARK   74  A    between atoms: _180  and  _181
REMARK   75  A    between atoms: _180  and  _183
REMARK   76  A    between atoms: _183  and  _184
REMARK   77  A    between atoms: _184  and  _185
REMARK   78  A    between atoms: _185  and  _186
REMARK   79  A    between atoms: _195  and  _197
REMARK   80  A    between atoms: _197  and  _198
REMARK   81  A    between atoms: _197  and  _200
REMARK   82  A    between atoms: _200  and  _201
REMARK   83  A    between atoms: _201  and  _202
REMARK   84  A    between atoms: _205  and  _207
REMARK   85  A    between atoms: _207  and  _208
REMARK   86  A    between atoms: _207  and  _210
REMARK   87  A    between atoms: _210  and  _211
REMARK   88  A    between atoms: _214  and  _216
REMARK   89  A    between atoms: _216  and  _217
REMARK   90  A    between atoms: _216  and  _219
REMARK   91  A    between atoms: _219  and  _220
REMARK   92  A    between atoms: _220  and  _221
REMARK   93  A    between atoms: _221  and  _222
REMARK   94  A    between atoms: _231  and  _233
REMARK   95  A    between atoms: _233  and  _234
REMARK   96  A    between atoms: _233  and  _236
REMARK   97  A    between atoms: _236  and  _237
REMARK   98  A    between atoms: _240  and  _242
REMARK   99  A    between atoms: _242  and  _243
REMARK  100  A    between atoms: _242  and  _245
REMARK  101  A    between atoms: _245  and  _246
REMARK  102  A    between atoms: _249  and  _251
REMARK  103  A    between atoms: _251  and  _252
REMARK  104  A    between atoms: _251  and  _254
REMARK  105  A    between atoms: _254  and  _255
REMARK  106  A    between atoms: _260  and  _262
REMARK  107  A    between atoms: _262  and  _263
REMARK  108  A    between atoms: _262  and  _265
REMARK  109  A    between atoms: _265  and  _266
REMARK  110  A    between atoms: _266  and  _267
REMARK  111  A    between atoms: _269  and  _271
REMARK  112  A    between atoms: _271  and  _272
REMARK  113  A    between atoms: _271  and  _274
REMARK  114  A    between atoms: _274  and  _275
REMARK  115  A    between atoms: _280  and  _282
REMARK  116  A    between atoms: _282  and  _283
REMARK  117  A    between atoms: _282  and  _285
REMARK  118  A    between atoms: _288  and  _290
REMARK  119  A    between atoms: _290  and  _291
REMARK  120  A    between atoms: _290  and  _293
REMARK  121  A    between atoms: _293  and  _294
REMARK  122  A    between atoms: _297  and  _299
REMARK  123  A    between atoms: _299  and  _300
REMARK  124  A    between atoms: _302  and  _304
REMARK  125  A    between atoms: _304  and  _305
REMARK  126  A    between atoms: _304  and  _307
REMARK  127  A    between atoms: _307  and  _308
REMARK  128  A    between atoms: _311  and  _313
REMARK  129  A    between atoms: _313  and  _314
REMARK  130  A    between atoms: _313  and  _316
REMARK  131  A    between atoms: _316  and  _317
REMARK  132  A    between atoms: _320  and  _322
REMARK  133  A    between atoms: _322  and  _323
REMARK  134  A    between atoms: _322  and  _325
REMARK  135  A    between atoms: _325  and  _326
REMARK  136  A    between atoms: _329  and  _331
REMARK  137  A    between atoms: _331  and  _332
REMARK  138  A    between atoms: _331  and  _334
REMARK  139  A    between atoms: _334  and  _335
REMARK  140  A    between atoms: _340  and  _341
REMARK  141  A    between atoms: _343  and  _345
REMARK  142  A    between atoms: _345  and  _346
REMARK  143  A    between atoms: _345  and  _348
REMARK  144  A    between atoms: _348  and  _349
REMARK  145  A    between atoms: _352  and  _354
REMARK  146  A    between atoms: _354  and  _355
REMARK  147  A    between atoms: _354  and  _357
REMARK  148  A    between atoms: _360  and  _362
REMARK  149  A    between atoms: _362  and  _363
REMARK  150  A    between atoms: _362  and  _365
REMARK  151  A    between atoms: _365  and  _366
REMARK  152  A    between atoms: _369  and  _371
REMARK  153  A    between atoms: _371  and  _372
REMARK  154  A    between atoms: _371  and  _374
REMARK  155  A    between atoms: _374  and  _375
REMARK  156  A    between atoms: _380  and  _382
REMARK  157  A    between atoms: _382  and  _383
REMARK  158  A    between atoms: _382  and  _385
REMARK  159  A    between atoms: _385  and  _386
REMARK  160  A    between atoms: _389  and  _391
REMARK  161  A    between atoms: _391  and  _392
REMARK  162  A    between atoms: _391  and  _394
REMARK  163  A    between atoms: _394  and  _395
REMARK  164  A    between atoms: _395  and  _396
REMARK  165  A    between atoms: _398  and  _400
REMARK  166  A    between atoms: _400  and  _401
REMARK  167  A    between atoms: _403  and  _405
REMARK  168  A    between atoms: _405  and  _406
REMARK  169  A    between atoms: _405  and  _408
REMARK  170  A    between atoms: _408  and  _409
REMARK  171  A    between atoms: _412  and  _414
REMARK  172  A    between atoms: _414  and  _415
REMARK  173  A    between atoms: _414  and  _417
REMARK  174  A    between atoms: _417  and  _418
REMARK  175  A    between atoms: _423  and  _424
REMARK  176  A    between atoms: _426  and  _428
REMARK  177  A    between atoms: _428  and  _429
REMARK  178  A    between atoms: _428  and  _431
REMARK  179  A    between atoms: _431  and  _432
REMARK  180  A    between atoms: _435  and  _437
REMARK  181  A    between atoms: _437  and  _438
REMARK  182  A    between atoms: _437  and  _440
REMARK  183  A    between atoms: _440  and  _441
REMARK  184  A    between atoms: _444  and  _446
REMARK  185  A    between atoms: _446  and  _447
REMARK  186  A    between atoms: _446  and  _449
REMARK  187  A    between atoms: _449  and  _450
REMARK  188  A    between atoms: _453  and  _455
REMARK  189  A    between atoms: _455  and  _456
REMARK  190  A    between atoms: _455  and  _458
REMARK  191  A    between atoms: _458  and  _459
REMARK  192  A    between atoms: _464  and  _466
REMARK  193  A    between atoms: _466  and  _467
REMARK  194  A    between atoms: _466  and  _469
REMARK  195  A    between atoms: _469  and  _470
REMARK  196  A    between atoms: _470  and  _471
REMARK  197  A    between atoms: _471  and  _472
REMARK  198  A    between atoms: _481  and  _483
REMARK  199  A    between atoms: _483  and  _484
REMARK  200  A    between atoms: _483  and  _486
REMARK  201  A    between atoms: _486  and  _487
REMARK  202  A    between atoms: _490  and  _492
REMARK  203  A    between atoms: _492  and  _493
REMARK  204  A    between atoms: _492  and  _495
REMARK  205  A    between atoms: _495  and  _496
REMARK  206  A    between atoms: _499  and  _501
REMARK  207  A    between atoms: _501  and  _502
REMARK  208  A    between atoms: _501  and  _504
REMARK  209  A    between atoms: _504  and  _505
REMARK  210  A    between atoms: _507  and  _509
REMARK  211  A    between atoms: _509  and  _510
REMARK  212  A    between atoms: _509  and  _512
REMARK  213  A    between atoms: _512  and  _513
REMARK  214  A    between atoms: _518  and  _520
REMARK  215  A    between atoms: _520  and  _521
REMARK  216  A    between atoms: _524  and  _526
REMARK  217  A    between atoms: _526  and  _527
REMARK  218  A    between atoms: _526  and  _529
REMARK  219  A    between atoms: _529  and  _530
REMARK  220  A    between atoms: _530  and  _531
REMARK  221  A    between atoms: _531  and  _532
REMARK  222  A    between atoms: _532  and  _533
REMARK  223  A    between atoms: _537  and  _539
REMARK  224  A    between atoms: _539  and  _540
REMARK  225  A    between atoms: _539  and  _542
REMARK  226  A    between atoms: _542  and  _543
REMARK  227  A    between atoms: _546  and  _548
REMARK  228  A    between atoms: _548  and  _549
REMARK  229  A    between atoms: _548  and  _551
REMARK  230  A    between atoms: _551  and  _552
REMARK  231  A    between atoms: _555  and  _557
REMARK  232  A    between atoms: _557  and  _558
REMARK  233  A    between atoms: _557  and  _560
REMARK  234  A    between atoms: _560  and  _561
REMARK  235  A    between atoms: _564  and  _566
REMARK  236  A    between atoms: _566  and  _567
REMARK  237  A    between atoms: _566  and  _569
REMARK  238  A    between atoms: _569  and  _570
REMARK  239  A    between atoms: _576  and  _578
REMARK  240  A    between atoms: _578  and  _579
REMARK  241  A    between atoms: _581  and  _583
REMARK  242  A    between atoms: _583  and  _584
REMARK  243  A    between atoms: _583  and  _586
REMARK  244  A    between atoms: _586  and  _587
REMARK  245  A    between atoms: _590  and  _592
REMARK  246  A    between atoms: _592  and  _593
REMARK  247  A    between atoms: _596  and  _598
REMARK  248  A    between atoms: _598  and  _599
REMARK  249  A    between atoms: _598  and  _601
REMARK  250  A    between atoms: _601  and  _602
REMARK  251  A    between atoms: _607  and  _609
REMARK  252  A    between atoms: _609  and  _610
REMARK  253  A    between atoms: _609  and  _612
REMARK  254  A    between atoms: _612  and  _613
REMARK                            x       y       z     vdW  Elec       q    Type
REMARK                         _______ _______ _______ _____ _____    ______ ____
ROOT
ATOM      1  CA  TYR A   1       4.311   7.200  20.724  0.00  0.00    +0.149 C 
ENDROOT
BRANCH   1   2
ATOM      2  C   TYR A   1       4.177   6.886  22.233  0.00  0.00    +0.239 C 
ATOM      3  N   ILE A   2       5.265   7.042  22.988  0.00  0.00    -0.298 N 
ATOM      4  H   ILE A   2       6.165   7.322  22.549  0.00  0.00    +0.150 HD
ATOM      5  O   TYR A   1       3.097   6.523  22.694  0.00  0.00    -0.274 OA
BRANCH   3   6
ATOM      6  CA  ILE A   2       5.196   6.818  24.449  0.00  0.00    +0.137 C 
BRANCH   6   7
ATOM      7  CB  ILE A   2       6.541   7.017  25.151  0.00  0.00    +0.026 C 
ATOM      8  CG2 ILE A   2       6.451   6.894  26.706  0.00  0.00    +0.002 C 
BRANCH   7   9
ATOM      9  CG1 ILE A   2       7.495   5.891  24.801  0.00  0.00    +0.002 C 
ATOM     10  CD1 ILE A   2       8.963   6.224  25.018  0.00  0.00    +0.000 C 
ENDBRANCH   7   9
ENDBRANCH   6   7
BRANCH   6  11
ATOM     11  C   ILE A   2       4.083   7.733  24.981  0.00  0.00    +0.227 C 
ATOM     12  O   ILE A   2       3.075   7.245  25.473  0.00  0.00    -0.286 OA
ENDBRANCH   6  11
ENDBRANCH   3   6
ENDBRANCH   1   2
BRANCH   1  13
ATOM     13  N   TYR A   1       4.990   8.504  20.528  0.00  0.00    -0.238 NA
ATOM     14  H   TYR A   1       5.964   8.504  20.163  0.00  0.00    +0.142 HD
ENDBRANCH   1  13
BRANCH   1  15
ATOM     15  CB  TYR A   1       5.087   6.093  19.992  0.00  0.00    +0.053 C 
BRANCH  15  16
ATOM     16  CG  TYR A   1       4.575   4.660  20.175  0.00  0.00    -0.020 A 
ATOM     17  CD2 TYR A   1       4.987   3.880  21.260  0.00  0.00    -0.001 A 
ATOM     18  CE2 TYR A   1       4.522   2.570  21.412  0.00  0.00    +0.036 A 
ATOM     19  CZ  TYR A   1       3.667   2.033  20.451  0.00  0.00    +0.134 A 
ATOM     20  CE1 TYR A   1       3.274   2.774  19.372  0.00  0.00    +0.036 A 
ATOM     21  CD1 TYR A   1       3.723   4.073  19.233  0.00  0.00    -0.001 A 
BRANCH  19  22
ATOM     22  OH  TYR A   1       3.182   0.766  20.604  0.00  0.00    -0.506 OA
ATOM     23  HH  TYR A   1       2.195   0.798  20.674  0.00  0.00    +0.292 HD
ENDBRANCH  19  22
ENDBRANCH  15  16
ENDBRANCH   1  15
TORSDOF 9
REMARK  Name = ../refined-set-2016/2baj/2baj_pocket.pdb
REMARK  254 active torsions:
REMARK  status: ('A' for Active; 'I' for Inactive)
REMARK    1  A    between atoms: _1  and  _3
REMARK    2  A    between atoms: _3  and  _4
REMARK    3  A    between atoms: _3  and  _6
REMARK    4  A    between atoms: _6  and  _7
REMARK    5  A    between atoms: _17  and  _19
REMARK    6  A    between atoms: _19  and  _20
REMARK    7  A    between atoms: _19  and  _22
REMARK    8  A    between atoms: _25  and  _27
REMARK    9  A    between atoms: _27  and  _28
REMARK   10  A    between atoms: _27  and  _30
REMARK   11  A    between atoms: _30  and  _31
REMARK   12  A    between atoms: _36  and  _37
REMARK   13  A    between atoms: _39  and  _41
REMARK   14  A    between atoms: _41  and  _42
REMARK   15  A    between atoms: _41  and  _44
REMARK   16  A    between atoms: _44  and  _45
REMARK   17  A    between atoms: _47  and  _49
REMARK   18  A    between atoms: _49  and  _50
REMARK   19  A    between atoms: _49  and  _52
REMARK   20  A    between atoms: _55  and  _57
REMARK   21  A    between atoms: _57  and  _58
REMARK   22  A    between atoms: _57  and  _60
REMARK   23  A    between atoms: _62  and  _64
REMARK   24  A    between atoms: _64  and  _65
REMARK   25  A    between atoms: _68  and  _70
REMARK   26  A    between atoms: _70  and  _71
REMARK   27  A    between atoms: _70  and  _73
REMARK   28  A    between atoms: _76  and  _78
REMARK   29  A    between atoms: _78  and  _79
REMARK   30  A    between atoms: _82  and  _84
REMARK   31  A    between atoms: _84  and  _85
REMARK   32  A    between atoms: _84  and  _87
REMARK   33  A    between atoms: _90  and  _92
REMARK   34  A    between atoms: _92  and  _93
REMARK   35  A    between atoms: _92  and  _95
REMARK   36  A    between atoms: _95  and  _96
REMARK   37  A    between atoms: _96  and  _97
REMARK   38  A    between atoms: _97  and  _98
REMARK   39  A    between atoms: _98  and  _99
REMARK   40  A    between atoms: _103  and  _105
REMARK   41  A    between atoms: _105  and  _106
REMARK   42  A    between atoms: _105  and  _108
REMARK   43  A    between atoms: _108  and  _109
REMARK   44  A    between atoms: _109  and  _110
REMARK   45  A    between atoms: _110  and  _111
REMARK   46  A    between atoms: _111  and  _112
REMARK   47  A    between atoms: _116  and  _118
REMARK   48  A    between atoms: _118  and  _119
REMARK   49  A    between atoms: _118  and  _121
REMARK   50  A    between atoms: _121  and  _122
REMARK   51  A    between atoms: _125  and  _127
REMARK   52  A    between atoms: _127  and  _128
REMARK   53  A    between atoms: _127  and  _130
REMARK   54  A    between atoms: _130  and  _131
REMARK   55  A    between atoms: _131  and  _132
REMARK   56  A    between atoms: _132  and  _133
REMARK   57  A    between atoms: _133  and  _134
REMARK   58  A    between atoms: _138  and  _140
REMARK   59  A    between atoms: _140  and  _141
REMARK   60  A    between atoms: _140  and  _143
REMARK   61  A    between atoms: _143  and  _144
REMARK   62  A    between atoms: _144  and  _145
REMARK   63  A    between atoms: _145  and  _146
REMARK   64  A    between atoms: _155  and  _157
REMARK   65  A    between atoms: _157  and  _158
REMARK   66  A    between atoms: _157  and  _160
REMARK   67  A    between atoms: _160  and  _161
REMARK   68  A    between atoms: _164  and  _166
REMARK   69  A    between atoms: _166  and  _167
REMARK   70  A    between atoms: _166  and  _169
REMARK   71  A    between atoms: _169  and  _170
REMARK   72  A    between atoms: _175  and  _176
REMARK   73  A    between atoms: _178  and  _180
REMARK   74  A    between atoms: _180  and  _181
REMARK   75  A    between atoms: _180  and  _183
REMARK   76  A    between atoms: _183  and  _184
REMARK   77  A    between atoms: _184  and  _185
REMARK   78  A    between atoms: _185  and  _186
REMARK   79  A    between atoms: _195  and  _197
REMARK   80  A    between atoms: _197  and  _198
REMARK   81  A    between atoms: _197  and  _200
REMARK   82  A    between atoms: _200  and  _201
REMARK   83  A    between atoms: _201  and  _202
REMARK   84  A    between atoms: _205  and  _207
REMARK   85  A    between atoms: _207  and  _208
REMARK   86  A    between atoms: _207  and  _210
REMARK   87  A    between atoms: _210  and  _211
REMARK   88  A    between atoms: _214  and  _216
REMARK   89  A    between atoms: _216  and  _217
REMARK   90  A    between atoms: _216  and  _219
REMARK   91  A    between atoms: _219  and  _220
REMARK   92  A    between atoms: _220  and  _221
REMARK   93  A    between atoms: _221  and  _222
REMARK   94  A    between atoms: _231  and  _233
REMARK   95  A    between atoms: _233  and  _234
REMARK   96  A    between atoms: _233  and  _236
REMARK   97  A    between atoms: _236  and  _237
REMARK   98  A    between atoms: _240  and  _242
REMARK   99  A    between atoms: _242  and  _243
REMARK  100  A    between atoms: _242  and  _245
REMARK  101  A    between atoms: _245  and  _246
REMARK  102  A    between atoms: _249  and  _251
REMARK  103  A    between atoms: _251  and  _252
REMARK  104  A    between atoms: _251  and  _254
REMARK  105  A    between atoms: _254  and  _255
REMARK  106  A    between atoms: _260  and  _262
REMARK  107  A    between atoms: _262  and  _263
REMARK  108  A    between atoms: _262  and  _265
REMARK  109  A    between atoms: _265  and  _266
REMARK  110  A    between atoms: _266  and  _267
REMARK  111  A    between atoms: _269  and  _271
REMARK  112  A    between atoms: _271  and  _272
REMARK  113  A    between atoms: _271  and  _274
REMARK  114  A    between atoms: _274  and  _275
REMARK  115  A    between atoms: _280  and  _282
REMARK  116  A    between atoms: _282  and  _283
REMARK  117  A    between atoms: _282  and  _285
REMARK  118  A    between atoms: _288  and  _290
REMARK  119  A    between atoms: _290  and  _291
REMARK  120  A    between atoms: _290  and  _293
REMARK  121  A    between atoms: _293  and  _294
REMARK  122  A    between atoms: _297  and  _299
REMARK  123  A    between atoms: _299  and  _300
REMARK  124  A    between atoms: _302  and  _304
REMARK  125  A    between atoms: _304  and  _305
REMARK  126  A    between atoms: _304  and  _307
REMARK  127  A    between atoms: _307  and  _308
REMARK  128  A    between atoms: _311  and  _313
REMARK  129  A    between atoms: _313  and  _314
REMARK  130  A    between atoms: _313  and  _316
REMARK  131  A    between atoms: _316  and  _317
REMARK  132  A    between atoms: _320  and  _322
REMARK  133  A    between atoms: _322  and  _323
REMARK  134  A    between atoms: _322  and  _325
REMARK  135  A    between atoms: _325  and  _326
REMARK  136  A    between atoms: _329  and  _331
REMARK  137  A    between atoms: _331  and  _332
REMARK  138  A    between atoms: _331  and  _334
REMARK  139  A    between atoms: _334  and  _335
REMARK  140  A    between atoms: _340  and  _341
REMARK  141  A    between atoms: _343  and  _345
REMARK  142  A    between atoms: _345  and  _346
REMARK  143  A    between atoms: _345  and  _348
REMARK  144  A    between atoms: _348  and  _349
REMARK  145  A    between atoms: _352  and  _354
REMARK  146  A    between atoms: _354  and  _355
REMARK  147  A    between atoms: _354  and  _357
REMARK  148  A    between atoms: _360  and  _362
REMARK  149  A    between atoms: _362  and  _363
REMARK  150  A    between atoms: _362  and  _365
REMARK  151  A    between atoms: _365  and  _366
REMARK  152  A    between atoms: _369  and  _371
REMARK  153  A    between atoms: _371  and  _372
REMARK  154  A    between atoms: _371  and  _374
REMARK  155  A    between atoms: _374  and  _375
REMARK  156  A    between atoms: _380  and  _382
REMARK  157  A    between atoms: _382  and  _383
REMARK  158  A    between atoms: _382  and  _385
REMARK  159  A    between atoms: _385  and  _386
REMARK  160  A    between atoms: _389  and  _391
REMARK  161  A    between atoms: _391  and  _392
REMARK  162  A    between atoms: _391  and  _394
REMARK  163  A    between atoms: _394  and  _395
REMARK  164  A    between atoms: _395  and  _396
REMARK  165  A    between atoms: _398  and  _400
REMARK  166  A    between atoms: _400  and  _401
REMARK  167  A    between atoms: _403  and  _405
REMARK  168  A    between atoms: _405  and  _406
REMARK  169  A    between atoms: _405  and  _408
REMARK  170  A    between atoms: _408  and  _409
REMARK  171  A    between atoms: _412  and  _414
REMARK  172  A    between atoms: _414  and  _415
REMARK  173  A    between atoms: _414  and  _417
REMARK  174  A    between atoms: _417  and  _418
REMARK  175  A    between atoms: _423  and  _424
REMARK  176  A    between atoms: _426  and  _428
REMARK  177  A    between atoms: _428  and  _429
REMARK  178  A    between atoms: _428  and  _431
REMARK  179  A    between atoms: _431  and  _432
REMARK  180  A    between atoms: _435  and  _437
REMARK  181  A    between atoms: _437  and  _438
REMARK  182  A    between atoms: _437  and  _440
REMARK  183  A    between atoms: _440  and  _441
REMARK  184  A    between atoms: _444  and  _446
REMARK  185  A    between atoms: _446  and  _447
REMARK  186  A    between atoms: _446  and  _449
REMARK  187  A    between atoms: _449  and  _450
REMARK  188  A    between atoms: _453  and  _455
REMARK  189  A    between atoms: _455  and  _456
REMARK  190  A    between atoms: _455  and  _458
REMARK  191  A    between atoms: _458  and  _459
REMARK  192  A    between atoms: _464  and  _466
REMARK  193  A    between atoms: _466  and  _467
REMARK  194  A    between atoms: _466  and  _469
REMARK  195  A    between atoms: _469  and  _470
REMARK  196  A    between atoms: _470  and  _471
REMARK  197  A    between atoms: _471  and  _472
REMARK  198  A    between atoms: _481  and  _483
REMARK  199  A    between atoms: _483  and  _484
REMARK  200  A    between atoms: _483  and  _486
REMARK  201  A    between atoms: _486  and  _487
REMARK  202  A    between atoms: _490  and  _492
REMARK  203  A    between atoms: _492  and  _493
REMARK  204  A    between atoms: _492  and  _495
REMARK  205  A    between atoms: _495  and  _496
REMARK  206  A    between atoms: _499  and  _501
REMARK  207  A    between atoms: _501  and  _502
REMARK  208  A    between atoms: _501  and  _504
REMARK  209  A    between atoms: _504  and  _505
REMARK  210  A    between atoms: _507  and  _509
REMARK  211  A    between atoms: _509  and  _510
REMARK  212  A    between atoms: _509  and  _512
REMARK  213  A    between atoms: _512  and  _513
REMARK  214  A    between atoms: _518  and  _520
REMARK  215  A    between atoms: _520  and  _521
REMARK  216  A    between atoms: _524  and  _526
REMARK  217  A    between atoms: _526  and  _527
REMARK  218  A    between atoms: _526  and  _529
REMARK  219  A    between atoms: _529  and  _530
REMARK  220  A    between atoms: _530  and  _531
REMARK  221  A    between atoms: _531  and  _532
REMARK  222  A    between atoms: _532  and  _533
REMARK  223  A    between atoms: _537  and  _539
REMARK  224  A    between atoms: _539  and  _540
REMARK  225  A    between atoms: _539  and  _542
REMARK  226  A    between atoms: _542  and  _543
REMARK  227  A    between atoms: _546  and  _548
REMARK  228  A    between atoms: _548  and  _549
REMARK  229  A    between atoms: _548  and  _551
REMARK  230  A    between atoms: _551  and  _552
REMARK  231  A    between atoms: _555  and  _557
REMARK  232  A    between atoms: _557  and  _558
REMARK  233  A    between atoms: _557  and  _560
REMARK  234  A    between atoms: _560  and  _561
REMARK  235  A    between atoms: _564  and  _566
REMARK  236  A    between atoms: _566  and  _567
REMARK  237  A    between atoms: _566  and  _569
REMARK  238  A    between atoms: _569  and  _570
REMARK  239  A    between atoms: _576  and  _578
REMARK  240  A    between atoms: _578  and  _579
REMARK  241  A    between atoms: _581  and  _583
REMARK  242  A    between atoms: _583  and  _584
REMARK  243  A    between atoms: _583  and  _586
REMARK  244  A    between atoms: _586  and  _587
REMARK  245  A    between atoms: _590  and  _592
REMARK  246  A    between atoms: _592  and  _593
REMARK  247  A    between atoms: _596  and  _598
REMARK  248  A    between atoms: _598  and  _599
REMARK  249  A    between atoms: _598  and  _601
REMARK  250  A    between atoms: _601  and  _602
REMARK  251  A    between atoms: _607  and  _609
REMARK  252  A    between atoms: _609  and  _610
REMARK  253  A    between atoms: _609  and  _612
REMARK  254  A    between atoms: _612  and  _613
REMARK                            x       y       z     vdW  Elec       q    Type
REMARK                         _______ _______ _______ _____ _____    ______ ____
ROOT
ATOM      1  CA  ARG A   4      10.674  10.870  33.583  0.00  0.00    +0.149 C 
ENDROOT
BRANCH   1   4
ATOM      2  C   HIS A   3       9.918   9.012  32.144  0.00  0.00    +0.241 C 
ATOM      3  O   HIS A   3      10.174   8.148  32.998  0.00  0.00    -0.273 OA
ATOM      4  N   ARG A   4      10.153  10.312  32.326  0.00  0.00    -0.297 N 
ATOM      5  H   ARG A   4       9.958  10.964  31.540  0.00  0.00    +0.150 HD
BRANCH   2   6
ATOM      6  CA  HIS A   3       9.352   8.616  30.778  0.00  0.00    +0.155 C 
BRANCH   6   9
ATOM      7  C   ILE A   2       7.019   9.096  31.142  0.00  0.00    +0.241 C 
ATOM      8  O   ILE A   2       7.006   8.218  31.976  0.00  0.00    -0.273 OA
ATOM      9  N   HIS A   3       8.119   9.338  30.452  0.00  0.00    -0.297 N 
ATOM     10  H   HIS A   3       8.110  10.037  29.682  0.00  0.00    +0.150 HD
BRANCH   7  11
ATOM     11  CA  ILE A   2       5.741   9.924  30.806  0.00  0.00    +0.148 C 
BRANCH  11  13
ATOM     12  C   ILE A   1       4.182   8.490  29.578  0.00  0.00    +0.238 C 
ATOM     13  N   ILE A   2       4.593   9.023  30.712  0.00  0.00    -0.297 N 
ATOM     14  H   ILE A   2       4.075   8.791  31.583  0.00  0.00    +0.150 HD
ATOM     15  O   ILE A   1       4.496   8.925  28.438  0.00  0.00    -0.274 OA
BRANCH  12  16
ATOM     16  CA  ILE A   1       3.226   7.320  29.703  0.00  0.00    +0.145 C 
BRANCH  16  17
ATOM     17  N   ILE A   1       2.043   7.659  28.913  0.00  0.00    -0.238 NA
ATOM     18  H   ILE A   1       2.169   7.810  27.892  0.00  0.00    +0.142 HD
ENDBRANCH  16  17
BRANCH  16  19
ATOM     19  CB  ILE A   1       3.891   6.040  29.088  0.00  0.00    +0.025 C 
ATOM     20  CG2 ILE A   1       5.242   5.725  29.715  0.00  0.00    +0.002 C 
BRANCH  19  21
ATOM     21  CG1 ILE A   1       2.941   4.863  29.204  0.00  0.00    +0.002 C 
ATOM     22  CD1 ILE A   1       2.745   4.145  27.848  0.00  0.00    +0.000 C 
ENDBRANCH  19  21
ENDBRANCH  16  19
ENDBRANCH  12  16
ENDBRANCH  11  13
BRANCH  11  23
ATOM     23  CB  ILE A   2       5.463  11.059  31.862  0.00  0.00    +0.027 C 
ATOM     24  CG2 ILE A   2       6.615  12.052  31.959  0.00  0.00    +0.002 C 
BRANCH  23  25
ATOM     25  CG1 ILE A   2       4.198  11.849  31.492  0.00  0.00    +0.002 C 
ATOM     26  CD1 ILE A   2       3.698  12.777  32.595  0.00  0.00    +0.000 C 
ENDBRANCH  23  25
ENDBRANCH  11  23
ENDBRANCH   7  11
ENDBRANCH   6   9
BRANCH   6  27
ATOM     27  CB  HIS A   3      10.387   8.821  29.672  0.00  0.00    +0.076 C 
BRANCH  27  28
ATOM     28  CG  HIS A   3      11.559   7.903  29.772  0.00  0.00    +0.082 A 
ATOM     29  ND1 HIS A   3      12.538   8.051  30.732  0.00  0.00    -0.227 NA
ATOM     30  CE1 HIS A   3      13.452   7.110  30.572  0.00  0.00    +0.199 A 
ATOM     31  NE2 HIS A   3      13.091   6.342  29.562  0.00  0.00    -0.221 NA
ATOM     32  CD2 HIS A   3      11.903   6.809  29.049  0.00  0.00    +0.115 A 
ENDBRANCH  27  28
ENDBRANCH   6  27
ENDBRANCH   2   6
ENDBRANCH   1   4
BRANCH   1  33
ATOM     33  C   ARG A   4      12.189  10.760  33.827  0.00  0.00    +0.241 C 
ATOM     34  O   ARG A   4      12.708  11.368  34.761  0.00  0.00    -0.273 OA
ATOM     35  N   ASP A   5      12.903   9.969  33.039  0.00  0.00    -0.297 N 
ATOM     36  H   ASP A   5      12.446   9.487  32.239  0.00  0.00    +0.150 HD
BRANCH  35  37
ATOM     37  CA  ASP A   5      14.346   9.769  33.293  0.00  0.00    +0.160 C 
BRANCH  37  38
ATOM     38  C   ASP A   5      15.142   9.607  32.026  0.00  0.00    +0.241 C 
ATOM     39  O   ASP A   5      16.115   8.839  31.977  0.00  0.00    -0.273 OA
ATOM     40  N   LEU A   6      14.725  10.315  30.992  0.00  0.00    -0.298 N 
ATOM     41  H   LEU A   6      13.826  10.834  31.050  0.00  0.00    +0.150 HD
BRANCH  40  42
ATOM     42  CA  LEU A   6      15.504  10.372  29.790  0.00  0.00    +0.137 C 
BRANCH  42  43
ATOM     43  C   LEU A   6      16.890  10.941  30.098  0.00  0.00    +0.227 C 
ATOM     44  O   LEU A   6      17.037  11.966  30.754  0.00  0.00    -0.286 OA
ENDBRANCH  42  43
BRANCH  42  45
ATOM     45  CB  LEU A   6      14.828  11.253  28.749  0.00  0.00    +0.028 C 
BRANCH  45  46
ATOM     46  CG  LEU A   6      14.071  10.661  27.571  0.00  0.00    +0.002 C 
ATOM     47  CD2 LEU A   6      12.668  11.186  27.603  0.00  0.00    +0.000 C 
ATOM     48  CD1 LEU A   6      14.086   9.175  27.505  0.00  0.00    +0.000 C 
ENDBRANCH  45  46
ENDBRANCH  42  45
ENDBRANCH  40  42
ENDBRANCH  37  38
BRANCH  37  49
ATOM     49  CB  ASP A   5      14.573   8.562  34.195  0.00  0.00    +0.143 C 
BRANCH  49  50
ATOM     50  CG  ASP A   5      15.965   8.511  34.755  0.00  0.00    +0.367 C 
ATOM     51  OD2 ASP A   5      16.449   7.484  35.259  0.00  0.00    -0.246 OA
ATOM     52  OD1 ASP A   5      16.685   9.532  34.691  0.00  0.00    -0.246 OA
ENDBRANCH  49  50
ENDBRANCH  37  49
ENDBRANCH  35  37
ENDBRANCH   1  33
BRANCH   1  53
ATOM     53  CB  ARG A   4       9.932  10.277  34.782  0.00  0.00    +0.033 C 
BRANCH  53  54
ATOM     54  CG  ARG A   4       8.446  10.575  34.786  0.00  0.00    +0.045 C 
BRANCH  54  55
ATOM     55  CD  ARG A   4       7.715  10.155  36.109  0.00  0.00    +0.174 C 
BRANCH  55  56
ATOM     56  NE  ARG A   4       6.373   9.584  35.877  0.00  0.00    -0.265 N 
ATOM     57  HE  ARG A   4       5.558  10.103  36.263  0.00  0.00    +0.259 HD
ATOM     58  CZ  ARG A   4       6.120   8.440  35.203  0.00  0.00    +0.342 C 
ATOM     59  NH2 ARG A   4       4.861   8.015  35.070  0.00  0.00    -0.292 N 
ATOM     60 HH21 ARG A   4       4.080   8.564  35.484  0.00  0.00    +0.255 HD
ATOM     61 HH22 ARG A   4       4.661   7.135  34.552  0.00  0.00    +0.255 HD
ATOM     62  NH1 ARG A   4       7.107   7.706  34.679  0.00  0.00    -0.292 N 
ATOM     63 HH11 ARG A   4       8.095   8.012  34.786  0.00  0.00    +0.255 HD
ATOM     64 HH12 ARG A   4       6.886   6.829  34.165  0.00  0.00    +0.255 HD
ENDBRANCH  55  56
ENDBRANCH  54  55
ENDBRANCH  53  54
ENDBRANCH   1  53
TORSDOF 26
REMARK  Name = ../refined-set-2016/2baj/2baj_pocket.pdb
REMARK  254 active torsions:
REMARK  status: ('A' for Active; 'I' for Inactive)
REMARK    1  A    between atoms: _1  and  _3
REMARK    2  A    between atoms: _3  and  _4
REMARK    3  A    between atoms: _3  and  _6
REMARK    4  A    between atoms: _6  and  _7
REMARK    5  A    between atoms: _17  and  _19
REMARK    6  A    between atoms: _19  and  _20
REMARK    7  A    between atoms: _19  and  _22
REMARK    8  A    between atoms: _25  and  _27
REMARK    9  A    between atoms: _27  and  _28
REMARK   10  A    between atoms: _27  and  _30
REMARK   11  A    between atoms: _30  and  _31
REMARK   12  A    between atoms: _36  and  _37
REMARK   13  A    between atoms: _39  and  _41
REMARK   14  A    between atoms: _41  and  _42
REMARK   15  A    between atoms: _41  and  _44
REMARK   16  A    between atoms: _44  and  _45
REMARK   17  A    between atoms: _47  and  _49
REMARK   18  A    between atoms: _49  and  _50
REMARK   19  A    between atoms: _49  and  _52
REMARK   20  A    between atoms: _55  and  _57
REMARK   21  A    between atoms: _57  and  _58
REMARK   22  A    between atoms: _57  and  _60
REMARK   23  A    between atoms: _62  and  _64
REMARK   24  A    between atoms: _64  and  _65
REMARK   25  A    between atoms: _68  and  _70
REMARK   26  A    between atoms: _70  and  _71
REMARK   27  A    between atoms: _70  and  _73
REMARK   28  A    between atoms: _76  and  _78
REMARK   29  A    between atoms: _78  and  _79
REMARK   30  A    between atoms: _82  and  _84
REMARK   31  A    between atoms: _84  and  _85
REMARK   32  A    between atoms: _84  and  _87
REMARK   33  A    between atoms: _90  and  _92
REMARK   34  A    between atoms: _92  and  _93
REMARK   35  A    between atoms: _92  and  _95
REMARK   36  A    between atoms: _95  and  _96
REMARK   37  A    between atoms: _96  and  _97
REMARK   38  A    between atoms: _97  and  _98
REMARK   39  A    between atoms: _98  and  _99
REMARK   40  A    between atoms: _103  and  _105
REMARK   41  A    between atoms: _105  and  _106
REMARK   42  A    between atoms: _105  and  _108
REMARK   43  A    between atoms: _108  and  _109
REMARK   44  A    between atoms: _109  and  _110
REMARK   45  A    between atoms: _110  and  _111
REMARK   46  A    between atoms: _111  and  _112
REMARK   47  A    between atoms: _116  and  _118
REMARK   48  A    between atoms: _118  and  _119
REMARK   49  A    between atoms: _118  and  _121
REMARK   50  A    between atoms: _121  and  _122
REMARK   51  A    between atoms: _125  and  _127
REMARK   52  A    between atoms: _127  and  _128
REMARK   53  A    between atoms: _127  and  _130
REMARK   54  A    between atoms: _130  and  _131
REMARK   55  A    between atoms: _131  and  _132
REMARK   56  A    between atoms: _132  and  _133
REMARK   57  A    between atoms: _133  and  _134
REMARK   58  A    between atoms: _138  and  _140
REMARK   59  A    between atoms: _140  and  _141
REMARK   60  A    between atoms: _140  and  _143
REMARK   61  A    between atoms: _143  and  _144
REMARK   62  A    between atoms: _144  and  _145
REMARK   63  A    between atoms: _145  and  _146
REMARK   64  A    between atoms: _155  and  _157
REMARK   65  A    between atoms: _157  and  _158
REMARK   66  A    between atoms: _157  and  _160
REMARK   67  A    between atoms: _160  and  _161
REMARK   68  A    between atoms: _164  and  _166
REMARK   69  A    between atoms: _166  and  _167
REMARK   70  A    between atoms: _166  and  _169
REMARK   71  A    between atoms: _169  and  _170
REMARK   72  A    between atoms: _175  and  _176
REMARK   73  A    between atoms: _178  and  _180
REMARK   74  A    between atoms: _180  and  _181
REMARK   75  A    between atoms: _180  and  _183
REMARK   76  A    between atoms: _183  and  _184
REMARK   77  A    between atoms: _184  and  _185
REMARK   78  A    between atoms: _185  and  _186
REMARK   79  A    between atoms: _195  and  _197
REMARK   80  A    between atoms: _197  and  _198
REMARK   81  A    between atoms: _197  and  _200
REMARK   82  A    between atoms: _200  and  _201
REMARK   83  A    between atoms: _201  and  _202
REMARK   84  A    between atoms: _205  and  _207
REMARK   85  A    between atoms: _207  and  _208
REMARK   86  A    between atoms: _207  and  _210
REMARK   87  A    between atoms: _210  and  _211
REMARK   88  A    between atoms: _214  and  _216
REMARK   89  A    between atoms: _216  and  _217
REMARK   90  A    between atoms: _216  and  _219
REMARK   91  A    between atoms: _219  and  _220
REMARK   92  A    between atoms: _220  and  _221
REMARK   93  A    between atoms: _221  and  _222
REMARK   94  A    between atoms: _231  and  _233
REMARK   95  A    between atoms: _233  and  _234
REMARK   96  A    between atoms: _233  and  _236
REMARK   97  A    between atoms: _236  and  _237
REMARK   98  A    between atoms: _240  and  _242
REMARK   99  A    between atoms: _242  and  _243
REMARK  100  A    between atoms: _242  and  _245
REMARK  101  A    between atoms: _245  and  _246
REMARK  102  A    between atoms: _249  and  _251
REMARK  103  A    between atoms: _251  and  _252
REMARK  104  A    between atoms: _251  and  _254
REMARK  105  A    between atoms: _254  and  _255
REMARK  106  A    between atoms: _260  and  _262
REMARK  107  A    between atoms: _262  and  _263
REMARK  108  A    between atoms: _262  and  _265
REMARK  109  A    between atoms: _265  and  _266
REMARK  110  A    between atoms: _266  and  _267
REMARK  111  A    between atoms: _269  and  _271
REMARK  112  A    between atoms: _271  and  _272
REMARK  113  A    between atoms: _271  and  _274
REMARK  114  A    between atoms: _274  and  _275
REMARK  115  A    between atoms: _280  and  _282
REMARK  116  A    between atoms: _282  and  _283
REMARK  117  A    between atoms: _282  and  _285
REMARK  118  A    between atoms: _288  and  _290
REMARK  119  A    between atoms: _290  and  _291
REMARK  120  A    between atoms: _290  and  _293
REMARK  121  A    between atoms: _293  and  _294
REMARK  122  A    between atoms: _297  and  _299
REMARK  123  A    between atoms: _299  and  _300
REMARK  124  A    between atoms: _302  and  _304
REMARK  125  A    between atoms: _304  and  _305
REMARK  126  A    between atoms: _304  and  _307
REMARK  127  A    between atoms: _307  and  _308
REMARK  128  A    between atoms: _311  and  _313
REMARK  129  A    between atoms: _313  and  _314
REMARK  130  A    between atoms: _313  and  _316
REMARK  131  A    between atoms: _316  and  _317
REMARK  132  A    between atoms: _320  and  _322
REMARK  133  A    between atoms: _322  and  _323
REMARK  134  A    between atoms: _322  and  _325
REMARK  135  A    between atoms: _325  and  _326
REMARK  136  A    between atoms: _329  and  _331
REMARK  137  A    between atoms: _331  and  _332
REMARK  138  A    between atoms: _331  and  _334
REMARK  139  A    between atoms: _334  and  _335
REMARK  140  A    between atoms: _340  and  _341
REMARK  141  A    between atoms: _343  and  _345
REMARK  142  A    between atoms: _345  and  _346
REMARK  143  A    between atoms: _345  and  _348
REMARK  144  A    between atoms: _348  and  _349
REMARK  145  A    between atoms: _352  and  _354
REMARK  146  A    between atoms: _354  and  _355
REMARK  147  A    between atoms: _354  and  _357
REMARK  148  A    between atoms: _360  and  _362
REMARK  149  A    between atoms: _362  and  _363
REMARK  150  A    between atoms: _362  and  _365
REMARK  151  A    between atoms: _365  and  _366
REMARK  152  A    between atoms: _369  and  _371
REMARK  153  A    between atoms: _371  and  _372
REMARK  154  A    between atoms: _371  and  _374
REMARK  155  A    between atoms: _374  and  _375
REMARK  156  A    between atoms: _380  and  _382
REMARK  157  A    between atoms: _382  and  _383
REMARK  158  A    between atoms: _382  and  _385
REMARK  159  A    between atoms: _385  and  _386
REMARK  160  A    between atoms: _389  and  _391
REMARK  161  A    between atoms: _391  and  _392
REMARK  162  A    between atoms: _391  and  _394
REMARK  163  A    between atoms: _394  and  _395
REMARK  164  A    between atoms: _395  and  _396
REMARK  165  A    between atoms: _398  and  _400
REMARK  166  A    between atoms: _400  and  _401
REMARK  167  A    between atoms: _403  and  _405
REMARK  168  A    between atoms: _405  and  _406
REMARK  169  A    between atoms: _405  and  _408
REMARK  170  A    between atoms: _408  and  _409
REMARK  171  A    between atoms: _412  and  _414
REMARK  172  A    between atoms: _414  and  _415
REMARK  173  A    between atoms: _414  and  _417
REMARK  174  A    between atoms: _417  and  _418
REMARK  175  A    between atoms: _423  and  _424
REMARK  176  A    between atoms: _426  and  _428
REMARK  177  A    between atoms: _428  and  _429
REMARK  178  A    between atoms: _428  and  _431
REMARK  179  A    between atoms: _431  and  _432
REMARK  180  A    between atoms: _435  and  _437
REMARK  181  A    between atoms: _437  and  _438
REMARK  182  A    between atoms: _437  and  _440
REMARK  183  A    between atoms: _440  and  _441
REMARK  184  A    between atoms: _444  and  _446
REMARK  185  A    between atoms: _446  and  _447
REMARK  186  A    between atoms: _446  and  _449
REMARK  187  A    between atoms: _449  and  _450
REMARK  188  A    between atoms: _453  and  _455
REMARK  189  A    between atoms: _455  and  _456
REMARK  190  A    between atoms: _455  and  _458
REMARK  191  A    between atoms: _458  and  _459
REMARK  192  A    between atoms: _464  and  _466
REMARK  193  A    between atoms: _466  and  _467
REMARK  194  A    between atoms: _466  and  _469
REMARK  195  A    between atoms: _469  and  _470
REMARK  196  A    between atoms: _470  and  _471
REMARK  197  A    between atoms: _471  and  _472
REMARK  198  A    between atoms: _481  and  _483
REMARK  199  A    between atoms: _483  and  _484
REMARK  200  A    between atoms: _483  and  _486
REMARK  201  A    between atoms: _486  and  _487
REMARK  202  A    between atoms: _490  and  _492
REMARK  203  A    between atoms: _492  and  _493
REMARK  204  A    between atoms: _492  and  _495
REMARK  205  A    between atoms: _495  and  _496
REMARK  206  A    between atoms: _499  and  _501
REMARK  207  A    between atoms: _501  and  _502
REMARK  208  A    between atoms: _501  and  _504
REMARK  209  A    between atoms: _504  and  _505
REMARK  210  A    between atoms: _507  and  _509
REMARK  211  A    between atoms: _509  and  _510
REMARK  212  A    between atoms: _509  and  _512
REMARK  213  A    between atoms: _512  and  _513
REMARK  214  A    between atoms: _518  and  _520
REMARK  215  A    between atoms: _520  and  _521
REMARK  216  A    between atoms: _524  and  _526
REMARK  217  A    between atoms: _526  and  _527
REMARK  218  A    between atoms: _526  and  _529
REMARK  219  A    between atoms: _529  and  _530
REMARK  220  A    between atoms: _530  and  _531
REMARK  221  A    between atoms: _531  and  _532
REMARK  222  A    between atoms: _532  and  _533
REMARK  223  A    between atoms: _537  and  _539
REMARK  224  A    between atoms: _539  and  _540
REMARK  225  A    between atoms: _539  and  _542
REMARK  226  A    between atoms: _542  and  _543
REMARK  227  A    between atoms: _546  and  _548
REMARK  228  A    between atoms: _548  and  _549
REMARK  229  A    between atoms: _548  and  _551
REMARK  230  A    between atoms: _551  and  _552
REMARK  231  A    between atoms: _555  and  _557
REMARK  232  A    between atoms: _557  and  _558
REMARK  233  A    between atoms: _557  and  _560
REMARK  234  A    between atoms: _560  and  _561
REMARK  235  A    between atoms: _564  and  _566
REMARK  236  A    between atoms: _566  and  _567
REMARK  237  A    between atoms: _566  and  _569
REMARK  238  A    between atoms: _569  and  _570
REMARK  239  A    between atoms: _576  and  _578
REMARK  240  A    between atoms: _578  and  _579
REMARK  241  A    between atoms: _581  and  _583
REMARK  242  A    between atoms: _583  and  _584
REMARK  243  A    between atoms: _583  and  _586
REMARK  244  A    between atoms: _586  and  _587
REMARK  245  A    between atoms: _590  and  _592
REMARK  246  A    between atoms: _592  and  _593
REMARK  247  A    between atoms: _596  and  _598
REMARK  248  A    between atoms: _598  and  _599
REMARK  249  A    between atoms: _598  and  _601
REMARK  250  A    between atoms: _601  and  _602
REMARK  251  A    between atoms: _607  and  _609
REMARK  252  A    between atoms: _609  and  _610
REMARK  253  A    between atoms: _609  and  _612
REMARK  254  A    between atoms: _612  and  _613
REMARK                            x       y       z     vdW  Elec       q    Type
REMARK                         _______ _______ _______ _____ _____    ______ ____
ROOT
ATOM      1  C   SER A   1      20.967   5.211  28.908  0.00  0.00    +0.241 C 
ATOM      2  O   SER A   1      20.944   3.965  28.910  0.00  0.00    -0.274 OA
ATOM      3  N   ASN A   2      19.874   5.952  28.751  0.00  0.00    -0.298 N 
ATOM      4  H   ASN A   2      19.936   6.984  28.867  0.00  0.00    +0.150 HD
ENDROOT
BRANCH   1   5
ATOM      5  CA  SER A   1      22.292   5.978  29.061  0.00  0.00    +0.174 C 
BRANCH   5   6
ATOM      6  N   SER A   1      22.144   7.400  28.746  0.00  0.00    -0.236 NA
ATOM      7  H   SER A   1      22.099   8.091  29.522  0.00  0.00    +0.142 HD
ENDBRANCH   5   6
BRANCH   5   8
ATOM      8  CB  SER A   1      22.879   5.790  30.468  0.00  0.00    +0.163 C 
BRANCH   8   9
ATOM      9  OG  SER A   1      21.893   5.943  31.452  0.00  0.00    -0.380 OA
ATOM     10  H   SER A   1      21.182   5.268  31.313  0.00  0.00    +0.211 HD
ENDBRANCH   8   9
ENDBRANCH   5   8
ENDBRANCH   1   5
BRANCH   3  11
ATOM     11  CA  ASN A   2      18.594   5.347  28.420  0.00  0.00    +0.146 C 
BRANCH  11  12
ATOM     12  C   ASN A   2      18.256   5.463  26.952  0.00  0.00    +0.227 C 
ATOM     13  O   ASN A   2      17.136   5.253  26.546  0.00  0.00    -0.286 OA
ENDBRANCH  11  12
BRANCH  11  14
ATOM     14  CB  ASN A   2      17.487   5.879  29.332  0.00  0.00    +0.112 C 
BRANCH  14  15
ATOM     15  CG  ASN A   2      17.416   5.094  30.646  0.00  0.00    +0.222 C 
ATOM     16  ND2 ASN A   2      16.978   5.745  31.713  0.00  0.00    -0.329 N 
ATOM     17 HD21 ASN A   2      16.912   5.257  32.629  0.00  0.00    +0.145 HD
ATOM     18 HD22 ASN A   2      16.700   6.744  31.635  0.00  0.00    +0.145 HD
ATOM     19  OD1 ASN A   2      17.761   3.897  30.685  0.00  0.00    -0.275 OA
ENDBRANCH  14  15
ENDBRANCH  11  14
ENDBRANCH   3  11
TORSDOF 8
REMARK  Name = ../refined-set-2016/2baj/2baj_pocket.pdb
REMARK  254 active torsions:
REMARK  status: ('A' for Active; 'I' for Inactive)
REMARK    1  A    between atoms: _1  and  _3
REMARK    2  A    between atoms: _3  and  _4
REMARK    3  A    between atoms: _3  and  _6
REMARK    4  A    between atoms: _6  and  _7
REMARK    5  A    between atoms: _17  and  _19
REMARK    6  A    between atoms: _19  and  _20
REMARK    7  A    between atoms: _19  and  _22
REMARK    8  A    between atoms: _25  and  _27
REMARK    9  A    between atoms: _27  and  _28
REMARK   10  A    between atoms: _27  and  _30
REMARK   11  A    between atoms: _30  and  _31
REMARK   12  A    between atoms: _36  and  _37
REMARK   13  A    between atoms: _39  and  _41
REMARK   14  A    between atoms: _41  and  _42
REMARK   15  A    between atoms: _41  and  _44
REMARK   16  A    between atoms: _44  and  _45
REMARK   17  A    between atoms: _47  and  _49
REMARK   18  A    between atoms: _49  and  _50
REMARK   19  A    between atoms: _49  and  _52
REMARK   20  A    between atoms: _55  and  _57
REMARK   21  A    between atoms: _57  and  _58
REMARK   22  A    between atoms: _57  and  _60
REMARK   23  A    between atoms: _62  and  _64
REMARK   24  A    between atoms: _64  and  _65
REMARK   25  A    between atoms: _68  and  _70
REMARK   26  A    between atoms: _70  and  _71
REMARK   27  A    between atoms: _70  and  _73
REMARK   28  A    between atoms: _76  and  _78
REMARK   29  A    between atoms: _78  and  _79
REMARK   30  A    between atoms: _82  and  _84
REMARK   31  A    between atoms: _84  and  _85
REMARK   32  A    between atoms: _84  and  _87
REMARK   33  A    between atoms: _90  and  _92
REMARK   34  A    between atoms: _92  and  _93
REMARK   35  A    between atoms: _92  and  _95
REMARK   36  A    between atoms: _95  and  _96
REMARK   37  A    between atoms: _96  and  _97
REMARK   38  A    between atoms: _97  and  _98
REMARK   39  A    between atoms: _98  and  _99
REMARK   40  A    between atoms: _103  and  _105
REMARK   41  A    between atoms: _105  and  _106
REMARK   42  A    between atoms: _105  and  _108
REMARK   43  A    between atoms: _108  and  _109
REMARK   44  A    between atoms: _109  and  _110
REMARK   45  A    between atoms: _110  and  _111
REMARK   46  A    between atoms: _111  and  _112
REMARK   47  A    between atoms: _116  and  _118
REMARK   48  A    between atoms: _118  and  _119
REMARK   49  A    between atoms: _118  and  _121
REMARK   50  A    between atoms: _121  and  _122
REMARK   51  A    between atoms: _125  and  _127
REMARK   52  A    between atoms: _127  and  _128
REMARK   53  A    between atoms: _127  and  _130
REMARK   54  A    between atoms: _130  and  _131
REMARK   55  A    between atoms: _131  and  _132
REMARK   56  A    between atoms: _132  and  _133
REMARK   57  A    between atoms: _133  and  _134
REMARK   58  A    between atoms: _138  and  _140
REMARK   59  A    between atoms: _140  and  _141
REMARK   60  A    between atoms: _140  and  _143
REMARK   61  A    between atoms: _143  and  _144
REMARK   62  A    between atoms: _144  and  _145
REMARK   63  A    between atoms: _145  and  _146
REMARK   64  A    between atoms: _155  and  _157
REMARK   65  A    between atoms: _157  and  _158
REMARK   66  A    between atoms: _157  and  _160
REMARK   67  A    between atoms: _160  and  _161
REMARK   68  A    between atoms: _164  and  _166
REMARK   69  A    between atoms: _166  and  _167
REMARK   70  A    between atoms: _166  and  _169
REMARK   71  A    between atoms: _169  and  _170
REMARK   72  A    between atoms: _175  and  _176
REMARK   73  A    between atoms: _178  and  _180
REMARK   74  A    between atoms: _180  and  _181
REMARK   75  A    between atoms: _180  and  _183
REMARK   76  A    between atoms: _183  and  _184
REMARK   77  A    between atoms: _184  and  _185
REMARK   78  A    between atoms: _185  and  _186
REMARK   79  A    between atoms: _195  and  _197
REMARK   80  A    between atoms: _197  and  _198
REMARK   81  A    between atoms: _197  and  _200
REMARK   82  A    between atoms: _200  and  _201
REMARK   83  A    between atoms: _201  and  _202
REMARK   84  A    between atoms: _205  and  _207
REMARK   85  A    between atoms: _207  and  _208
REMARK   86  A    between atoms: _207  and  _210
REMARK   87  A    between atoms: _210  and  _211
REMARK   88  A    between atoms: _214  and  _216
REMARK   89  A    between atoms: _216  and  _217
REMARK   90  A    between atoms: _216  and  _219
REMARK   91  A    between atoms: _219  and  _220
REMARK   92  A    between atoms: _220  and  _221
REMARK   93  A    between atoms: _221  and  _222
REMARK   94  A    between atoms: _231  and  _233
REMARK   95  A    between atoms: _233  and  _234
REMARK   96  A    between atoms: _233  and  _236
REMARK   97  A    between atoms: _236  and  _237
REMARK   98  A    between atoms: _240  and  _242
REMARK   99  A    between atoms: _242  and  _243
REMARK  100  A    between atoms: _242  and  _245
REMARK  101  A    between atoms: _245  and  _246
REMARK  102  A    between atoms: _249  and  _251
REMARK  103  A    between atoms: _251  and  _252
REMARK  104  A    between atoms: _251  and  _254
REMARK  105  A    between atoms: _254  and  _255
REMARK  106  A    between atoms: _260  and  _262
REMARK  107  A    between atoms: _262  and  _263
REMARK  108  A    between atoms: _262  and  _265
REMARK  109  A    between atoms: _265  and  _266
REMARK  110  A    between atoms: _266  and  _267
REMARK  111  A    between atoms: _269  and  _271
REMARK  112  A    between atoms: _271  and  _272
REMARK  113  A    between atoms: _271  and  _274
REMARK  114  A    between atoms: _274  and  _275
REMARK  115  A    between atoms: _280  and  _282
REMARK  116  A    between atoms: _282  and  _283
REMARK  117  A    between atoms: _282  and  _285
REMARK  118  A    between atoms: _288  and  _290
REMARK  119  A    between atoms: _290  and  _291
REMARK  120  A    between atoms: _290  and  _293
REMARK  121  A    between atoms: _293  and  _294
REMARK  122  A    between atoms: _297  and  _299
REMARK  123  A    between atoms: _299  and  _300
REMARK  124  A    between atoms: _302  and  _304
REMARK  125  A    between atoms: _304  and  _305
REMARK  126  A    between atoms: _304  and  _307
REMARK  127  A    between atoms: _307  and  _308
REMARK  128  A    between atoms: _311  and  _313
REMARK  129  A    between atoms: _313  and  _314
REMARK  130  A    between atoms: _313  and  _316
REMARK  131  A    between atoms: _316  and  _317
REMARK  132  A    between atoms: _320  and  _322
REMARK  133  A    between atoms: _322  and  _323
REMARK  134  A    between atoms: _322  and  _325
REMARK  135  A    between atoms: _325  and  _326
REMARK  136  A    between atoms: _329  and  _331
REMARK  137  A    between atoms: _331  and  _332
REMARK  138  A    between atoms: _331  and  _334
REMARK  139  A    between atoms: _334  and  _335
REMARK  140  A    between atoms: _340  and  _341
REMARK  141  A    between atoms: _343  and  _345
REMARK  142  A    between atoms: _345  and  _346
REMARK  143  A    between atoms: _345  and  _348
REMARK  144  A    between atoms: _348  and  _349
REMARK  145  A    between atoms: _352  and  _354
REMARK  146  A    between atoms: _354  and  _355
REMARK  147  A    between atoms: _354  and  _357
REMARK  148  A    between atoms: _360  and  _362
REMARK  149  A    between atoms: _362  and  _363
REMARK  150  A    between atoms: _362  and  _365
REMARK  151  A    between atoms: _365  and  _366
REMARK  152  A    between atoms: _369  and  _371
REMARK  153  A    between atoms: _371  and  _372
REMARK  154  A    between atoms: _371  and  _374
REMARK  155  A    between atoms: _374  and  _375
REMARK  156  A    between atoms: _380  and  _382
REMARK  157  A    between atoms: _382  and  _383
REMARK  158  A    between atoms: _382  and  _385
REMARK  159  A    between atoms: _385  and  _386
REMARK  160  A    between atoms: _389  and  _391
REMARK  161  A    between atoms: _391  and  _392
REMARK  162  A    between atoms: _391  and  _394
REMARK  163  A    between atoms: _394  and  _395
REMARK  164  A    between atoms: _395  and  _396
REMARK  165  A    between atoms: _398  and  _400
REMARK  166  A    between atoms: _400  and  _401
REMARK  167  A    between atoms: _403  and  _405
REMARK  168  A    between atoms: _405  and  _406
REMARK  169  A    between atoms: _405  and  _408
REMARK  170  A    between atoms: _408  and  _409
REMARK  171  A    between atoms: _412  and  _414
REMARK  172  A    between atoms: _414  and  _415
REMARK  173  A    between atoms: _414  and  _417
REMARK  174  A    between atoms: _417  and  _418
REMARK  175  A    between atoms: _423  and  _424
REMARK  176  A    between atoms: _426  and  _428
REMARK  177  A    between atoms: _428  and  _429
REMARK  178  A    between atoms: _428  and  _431
REMARK  179  A    between atoms: _431  and  _432
REMARK  180  A    between atoms: _435  and  _437
REMARK  181  A    between atoms: _437  and  _438
REMARK  182  A    between atoms: _437  and  _440
REMARK  183  A    between atoms: _440  and  _441
REMARK  184  A    between atoms: _444  and  _446
REMARK  185  A    between atoms: _446  and  _447
REMARK  186  A    between atoms: _446  and  _449
REMARK  187  A    between atoms: _449  and  _450
REMARK  188  A    between atoms: _453  and  _455
REMARK  189  A    between atoms: _455  and  _456
REMARK  190  A    between atoms: _455  and  _458
REMARK  191  A    between atoms: _458  and  _459
REMARK  192  A    between atoms: _464  and  _466
REMARK  193  A    between atoms: _466  and  _467
REMARK  194  A    between atoms: _466  and  _469
REMARK  195  A    between atoms: _469  and  _470
REMARK  196  A    between atoms: _470  and  _471
REMARK  197  A    between atoms: _471  and  _472
REMARK  198  A    between atoms: _481  and  _483
REMARK  199  A    between atoms: _483  and  _484
REMARK  200  A    between atoms: _483  and  _486
REMARK  201  A    between atoms: _486  and  _487
REMARK  202  A    between atoms: _490  and  _492
REMARK  203  A    between atoms: _492  and  _493
REMARK  204  A    between atoms: _492  and  _495
REMARK  205  A    between atoms: _495  and  _496
REMARK  206  A    between atoms: _499  and  _501
REMARK  207  A    between atoms: _501  and  _502
REMARK  208  A    between atoms: _501  and  _504
REMARK  209  A    between atoms: _504  and  _505
REMARK  210  A    between atoms: _507  and  _509
REMARK  211  A    between atoms: _509  and  _510
REMARK  212  A    between atoms: _509  and  _512
REMARK  213  A    between atoms: _512  and  _513
REMARK  214  A    between atoms: _518  and  _520
REMARK  215  A    between atoms: _520  and  _521
REMARK  216  A    between atoms: _524  and  _526
REMARK  217  A    between atoms: _526  and  _527
REMARK  218  A    between atoms: _526  and  _529
REMARK  219  A    between atoms: _529  and  _530
REMARK  220  A    between atoms: _530  and  _531
REMARK  221  A    between atoms: _531  and  _532
REMARK  222  A    between atoms: _532  and  _533
REMARK  223  A    between atoms: _537  and  _539
REMARK  224  A    between atoms: _539  and  _540
REMARK  225  A    between atoms: _539  and  _542
REMARK  226  A    between atoms: _542  and  _543
REMARK  227  A    between atoms: _546  and  _548
REMARK  228  A    between atoms: _548  and  _549
REMARK  229  A    between atoms: _548  and  _551
REMARK  230  A    between atoms: _551  and  _552
REMARK  231  A    between atoms: _555  and  _557
REMARK  232  A    between atoms: _557  and  _558
REMARK  233  A    between atoms: _557  and  _560
REMARK  234  A    between atoms: _560  and  _561
REMARK  235  A    between atoms: _564  and  _566
REMARK  236  A    between atoms: _566  and  _567
REMARK  237  A    between atoms: _566  and  _569
REMARK  238  A    between atoms: _569  and  _570
REMARK  239  A    between atoms: _576  and  _578
REMARK  240  A    between atoms: _578  and  _579
REMARK  241  A    between atoms: _581  and  _583
REMARK  242  A    between atoms: _583  and  _584
REMARK  243  A    between atoms: _583  and  _586
REMARK  244  A    between atoms: _586  and  _587
REMARK  245  A    between atoms: _590  and  _592
REMARK  246  A    between atoms: _592  and  _593
REMARK  247  A    between atoms: _596  and  _598
REMARK  248  A    between atoms: _598  and  _599
REMARK  249  A    between atoms: _598  and  _601
REMARK  250  A    between atoms: _601  and  _602
REMARK  251  A    between atoms: _607  and  _609
REMARK  252  A    between atoms: _609  and  _610
REMARK  253  A    between atoms: _609  and  _612
REMARK  254  A    between atoms: _612  and  _613
REMARK                            x       y       z     vdW  Elec       q    Type
REMARK                         _______ _______ _______ _____ _____    ______ ____
ROOT
ATOM      1  CA  ALA A   1      20.381   2.681  22.899  0.00  0.00    +0.133 C 
ATOM      2  CB  ALA A   1      19.894   1.263  23.172  0.00  0.00    +0.027 C 
ENDROOT
BRANCH   1   3
ATOM      3  N   ALA A   1      19.508   3.648  23.546  0.00  0.00    -0.239 NA
ATOM      4  H   ALA A   1      18.489   3.448  23.596  0.00  0.00    +0.142 HD
ENDBRANCH   1   3
BRANCH   1   5
ATOM      5  C   ALA A   1      20.408   2.931  21.403  0.00  0.00    +0.224 C 
ATOM      6  O   ALA A   1      19.398   3.242  20.818  0.00  0.00    -0.287 OA
ENDBRANCH   1   5
TORSDOF 2
REMARK  Name = ../refined-set-2016/2baj/2baj_pocket.pdb
REMARK  254 active torsions:
REMARK  status: ('A' for Active; 'I' for Inactive)
REMARK    1  A    between atoms: _1  and  _3
REMARK    2  A    between atoms: _3  and  _4
REMARK    3  A    between atoms: _3  and  _6
REMARK    4  A    between atoms: _6  and  _7
REMARK    5  A    between atoms: _17  and  _19
REMARK    6  A    between atoms: _19  and  _20
REMARK    7  A    between atoms: _19  and  _22
REMARK    8  A    between atoms: _25  and  _27
REMARK    9  A    between atoms: _27  and  _28
REMARK   10  A    between atoms: _27  and  _30
REMARK   11  A    between atoms: _30  and  _31
REMARK   12  A    between atoms: _36  and  _37
REMARK   13  A    between atoms: _39  and  _41
REMARK   14  A    between atoms: _41  and  _42
REMARK   15  A    between atoms: _41  and  _44
REMARK   16  A    between atoms: _44  and  _45
REMARK   17  A    between atoms: _47  and  _49
REMARK   18  A    between atoms: _49  and  _50
REMARK   19  A    between atoms: _49  and  _52
REMARK   20  A    between atoms: _55  and  _57
REMARK   21  A    between atoms: _57  and  _58
REMARK   22  A    between atoms: _57  and  _60
REMARK   23  A    between atoms: _62  and  _64
REMARK   24  A    between atoms: _64  and  _65
REMARK   25  A    between atoms: _68  and  _70
REMARK   26  A    between atoms: _70  and  _71
REMARK   27  A    between atoms: _70  and  _73
REMARK   28  A    between atoms: _76  and  _78
REMARK   29  A    between atoms: _78  and  _79
REMARK   30  A    between atoms: _82  and  _84
REMARK   31  A    between atoms: _84  and  _85
REMARK   32  A    between atoms: _84  and  _87
REMARK   33  A    between atoms: _90  and  _92
REMARK   34  A    between atoms: _92  and  _93
REMARK   35  A    between atoms: _92  and  _95
REMARK   36  A    between atoms: _95  and  _96
REMARK   37  A    between atoms: _96  and  _97
REMARK   38  A    between atoms: _97  and  _98
REMARK   39  A    between atoms: _98  and  _99
REMARK   40  A    between atoms: _103  and  _105
REMARK   41  A    between atoms: _105  and  _106
REMARK   42  A    between atoms: _105  and  _108
REMARK   43  A    between atoms: _108  and  _109
REMARK   44  A    between atoms: _109  and  _110
REMARK   45  A    between atoms: _110  and  _111
REMARK   46  A    between atoms: _111  and  _112
REMARK   47  A    between atoms: _116  and  _118
REMARK   48  A    between atoms: _118  and  _119
REMARK   49  A    between atoms: _118  and  _121
REMARK   50  A    between atoms: _121  and  _122
REMARK   51  A    between atoms: _125  and  _127
REMARK   52  A    between atoms: _127  and  _128
REMARK   53  A    between atoms: _127  and  _130
REMARK   54  A    between atoms: _130  and  _131
REMARK   55  A    between atoms: _131  and  _132
REMARK   56  A    between atoms: _132  and  _133
REMARK   57  A    between atoms: _133  and  _134
REMARK   58  A    between atoms: _138  and  _140
REMARK   59  A    between atoms: _140  and  _141
REMARK   60  A    between atoms: _140  and  _143
REMARK   61  A    between atoms: _143  and  _144
REMARK   62  A    between atoms: _144  and  _145
REMARK   63  A    between atoms: _145  and  _146
REMARK   64  A    between atoms: _155  and  _157
REMARK   65  A    between atoms: _157  and  _158
REMARK   66  A    between atoms: _157  and  _160
REMARK   67  A    between atoms: _160  and  _161
REMARK   68  A    between atoms: _164  and  _166
REMARK   69  A    between atoms: _166  and  _167
REMARK   70  A    between atoms: _166  and  _169
REMARK   71  A    between atoms: _169  and  _170
REMARK   72  A    between atoms: _175  and  _176
REMARK   73  A    between atoms: _178  and  _180
REMARK   74  A    between atoms: _180  and  _181
REMARK   75  A    between atoms: _180  and  _183
REMARK   76  A    between atoms: _183  and  _184
REMARK   77  A    between atoms: _184  and  _185
REMARK   78  A    between atoms: _185  and  _186
REMARK   79  A    between atoms: _195  and  _197
REMARK   80  A    between atoms: _197  and  _198
REMARK   81  A    between atoms: _197  and  _200
REMARK   82  A    between atoms: _200  and  _201
REMARK   83  A    between atoms: _201  and  _202
REMARK   84  A    between atoms: _205  and  _207
REMARK   85  A    between atoms: _207  and  _208
REMARK   86  A    between atoms: _207  and  _210
REMARK   87  A    between atoms: _210  and  _211
REMARK   88  A    between atoms: _214  and  _216
REMARK   89  A    between atoms: _216  and  _217
REMARK   90  A    between atoms: _216  and  _219
REMARK   91  A    between atoms: _219  and  _220
REMARK   92  A    between atoms: _220  and  _221
REMARK   93  A    between atoms: _221  and  _222
REMARK   94  A    between atoms: _231  and  _233
REMARK   95  A    between atoms: _233  and  _234
REMARK   96  A    between atoms: _233  and  _236
REMARK   97  A    between atoms: _236  and  _237
REMARK   98  A    between atoms: _240  and  _242
REMARK   99  A    between atoms: _242  and  _243
REMARK  100  A    between atoms: _242  and  _245
REMARK  101  A    between atoms: _245  and  _246
REMARK  102  A    between atoms: _249  and  _251
REMARK  103  A    between atoms: _251  and  _252
REMARK  104  A    between atoms: _251  and  _254
REMARK  105  A    between atoms: _254  and  _255
REMARK  106  A    between atoms: _260  and  _262
REMARK  107  A    between atoms: _262  and  _263
REMARK  108  A    between atoms: _262  and  _265
REMARK  109  A    between atoms: _265  and  _266
REMARK  110  A    between atoms: _266  and  _267
REMARK  111  A    between atoms: _269  and  _271
REMARK  112  A    between atoms: _271  and  _272
REMARK  113  A    between atoms: _271  and  _274
REMARK  114  A    between atoms: _274  and  _275
REMARK  115  A    between atoms: _280  and  _282
REMARK  116  A    between atoms: _282  and  _283
REMARK  117  A    between atoms: _282  and  _285
REMARK  118  A    between atoms: _288  and  _290
REMARK  119  A    between atoms: _290  and  _291
REMARK  120  A    between atoms: _290  and  _293
REMARK  121  A    between atoms: _293  and  _294
REMARK  122  A    between atoms: _297  and  _299
REMARK  123  A    between atoms: _299  and  _300
REMARK  124  A    between atoms: _302  and  _304
REMARK  125  A    between atoms: _304  and  _305
REMARK  126  A    between atoms: _304  and  _307
REMARK  127  A    between atoms: _307  and  _308
REMARK  128  A    between atoms: _311  and  _313
REMARK  129  A    between atoms: _313  and  _314
REMARK  130  A    between atoms: _313  and  _316
REMARK  131  A    between atoms: _316  and  _317
REMARK  132  A    between atoms: _320  and  _322
REMARK  133  A    between atoms: _322  and  _323
REMARK  134  A    between atoms: _322  and  _325
REMARK  135  A    between atoms: _325  and  _326
REMARK  136  A    between atoms: _329  and  _331
REMARK  137  A    between atoms: _331  and  _332
REMARK  138  A    between atoms: _331  and  _334
REMARK  139  A    between atoms: _334  and  _335
REMARK  140  A    between atoms: _340  and  _341
REMARK  141  A    between atoms: _343  and  _345
REMARK  142  A    between atoms: _345  and  _346
REMARK  143  A    between atoms: _345  and  _348
REMARK  144  A    between atoms: _348  and  _349
REMARK  145  A    between atoms: _352  and  _354
REMARK  146  A    between atoms: _354  and  _355
REMARK  147  A    between atoms: _354  and  _357
REMARK  148  A    between atoms: _360  and  _362
REMARK  149  A    between atoms: _362  and  _363
REMARK  150  A    between atoms: _362  and  _365
REMARK  151  A    between atoms: _365  and  _366
REMARK  152  A    between atoms: _369  and  _371
REMARK  153  A    between atoms: _371  and  _372
REMARK  154  A    between atoms: _371  and  _374
REMARK  155  A    between atoms: _374  and  _375
REMARK  156  A    between atoms: _380  and  _382
REMARK  157  A    between atoms: _382  and  _383
REMARK  158  A    between atoms: _382  and  _385
REMARK  159  A    between atoms: _385  and  _386
REMARK  160  A    between atoms: _389  and  _391
REMARK  161  A    between atoms: _391  and  _392
REMARK  162  A    between atoms: _391  and  _394
REMARK  163  A    between atoms: _394  and  _395
REMARK  164  A    between atoms: _395  and  _396
REMARK  165  A    between atoms: _398  and  _400
REMARK  166  A    between atoms: _400  and  _401
REMARK  167  A    between atoms: _403  and  _405
REMARK  168  A    between atoms: _405  and  _406
REMARK  169  A    between atoms: _405  and  _408
REMARK  170  A    between atoms: _408  and  _409
REMARK  171  A    between atoms: _412  and  _414
REMARK  172  A    between atoms: _414  and  _415
REMARK  173  A    between atoms: _414  and  _417
REMARK  174  A    between atoms: _417  and  _418
REMARK  175  A    between atoms: _423  and  _424
REMARK  176  A    between atoms: _426  and  _428
REMARK  177  A    between atoms: _428  and  _429
REMARK  178  A    between atoms: _428  and  _431
REMARK  179  A    between atoms: _431  and  _432
REMARK  180  A    between atoms: _435  and  _437
REMARK  181  A    between atoms: _437  and  _438
REMARK  182  A    between atoms: _437  and  _440
REMARK  183  A    between atoms: _440  and  _441
REMARK  184  A    between atoms: _444  and  _446
REMARK  185  A    between atoms: _446  and  _447
REMARK  186  A    between atoms: _446  and  _449
REMARK  187  A    between atoms: _449  and  _450
REMARK  188  A    between atoms: _453  and  _455
REMARK  189  A    between atoms: _455  and  _456
REMARK  190  A    between atoms: _455  and  _458
REMARK  191  A    between atoms: _458  and  _459
REMARK  192  A    between atoms: _464  and  _466
REMARK  193  A    between atoms: _466  and  _467
REMARK  194  A    between atoms: _466  and  _469
REMARK  195  A    between atoms: _469  and  _470
REMARK  196  A    between atoms: _470  and  _471
REMARK  197  A    between atoms: _471  and  _472
REMARK  198  A    between atoms: _481  and  _483
REMARK  199  A    between atoms: _483  and  _484
REMARK  200  A    between atoms: _483  and  _486
REMARK  201  A    between atoms: _486  and  _487
REMARK  202  A    between atoms: _490  and  _492
REMARK  203  A    between atoms: _492  and  _493
REMARK  204  A    between atoms: _492  and  _495
REMARK  205  A    between atoms: _495  and  _496
REMARK  206  A    between atoms: _499  and  _501
REMARK  207  A    between atoms: _501  and  _502
REMARK  208  A    between atoms: _501  and  _504
REMARK  209  A    between atoms: _504  and  _505
REMARK  210  A    between atoms: _507  and  _509
REMARK  211  A    between atoms: _509  and  _510
REMARK  212  A    between atoms: _509  and  _512
REMARK  213  A    between atoms: _512  and  _513
REMARK  214  A    between atoms: _518  and  _520
REMARK  215  A    between atoms: _520  and  _521
REMARK  216  A    between atoms: _524  and  _526
REMARK  217  A    between atoms: _526  and  _527
REMARK  218  A    between atoms: _526  and  _529
REMARK  219  A    between atoms: _529  and  _530
REMARK  220  A    between atoms: _530  and  _531
REMARK  221  A    between atoms: _531  and  _532
REMARK  222  A    between atoms: _532  and  _533
REMARK  223  A    between atoms: _537  and  _539
REMARK  224  A    between atoms: _539  and  _540
REMARK  225  A    between atoms: _539  and  _542
REMARK  226  A    between atoms: _542  and  _543
REMARK  227  A    between atoms: _546  and  _548
REMARK  228  A    between atoms: _548  and  _549
REMARK  229  A    between atoms: _548  and  _551
REMARK  230  A    between atoms: _551  and  _552
REMARK  231  A    between atoms: _555  and  _557
REMARK  232  A    between atoms: _557  and  _558
REMARK  233  A    between atoms: _557  and  _560
REMARK  234  A    between atoms: _560  and  _561
REMARK  235  A    between atoms: _564  and  _566
REMARK  236  A    between atoms: _566  and  _567
REMARK  237  A    between atoms: _566  and  _569
REMARK  238  A    between atoms: _569  and  _570
REMARK  239  A    between atoms: _576  and  _578
REMARK  240  A    between atoms: _578  and  _579
REMARK  241  A    between atoms: _581  and  _583
REMARK  242  A    between atoms: _583  and  _584
REMARK  243  A    between atoms: _583  and  _586
REMARK  244  A    between atoms: _586  and  _587
REMARK  245  A    between atoms: _590  and  _592
REMARK  246  A    between atoms: _592  and  _593
REMARK  247  A    between atoms: _596  and  _598
REMARK  248  A    between atoms: _598  and  _599
REMARK  249  A    between atoms: _598  and  _601
REMARK  250  A    between atoms: _601  and  _602
REMARK  251  A    between atoms: _607  and  _609
REMARK  252  A    between atoms: _609  and  _610
REMARK  253  A    between atoms: _609  and  _612
REMARK  254  A    between atoms: _612  and  _613
REMARK                            x       y       z     vdW  Elec       q    Type
REMARK                         _______ _______ _______ _____ _____    ______ ____
ROOT
ATOM      1  CA  ASP A   4      14.657   2.645  30.788  0.00  0.00    +0.160 C 
ENDROOT
BRANCH   1   3
ATOM      2  C   LEU A   3      14.638   3.154  28.388  0.00  0.00    +0.241 C 
ATOM      3  N   ASP A   4      14.427   2.315  29.396  0.00  0.00    -0.297 N 
ATOM      4  H   ASP A   4      14.075   1.362  29.172  0.00  0.00    +0.150 HD
ATOM      5  O   LEU A   3      14.886   4.343  28.520  0.00  0.00    -0.273 OA
BRANCH   2   6
ATOM      6  CA  LEU A   3      14.464   2.572  27.011  0.00  0.00    +0.149 C 
BRANCH   6   8
ATOM      7  C   ILE A   2      14.076   3.563  24.870  0.00  0.00    +0.241 C 
ATOM      8  N   LEU A   3      14.680   3.604  26.038  0.00  0.00    -0.297 N 
ATOM      9  H   LEU A   3      15.321   4.393  26.258  0.00  0.00    +0.150 HD
ATOM     10  O   ILE A   2      13.329   2.657  24.522  0.00  0.00    -0.273 OA
BRANCH   7  11
ATOM     11  CA  ILE A   2      14.316   4.737  23.990  0.00  0.00    +0.148 C 
BRANCH  11  14
ATOM     12  C   LYS A   1      15.640   3.712  22.219  0.00  0.00    +0.238 C 
ATOM     13  O   LYS A   1      16.669   3.655  22.886  0.00  0.00    -0.274 OA
ATOM     14  N   ILE A   2      14.512   4.259  22.650  0.00  0.00    -0.297 N 
ATOM     15  H   ILE A   2      13.723   4.347  21.978  0.00  0.00    +0.150 HD
BRANCH  12  16
ATOM     16  CA  LYS A   1      15.549   3.114  20.810  0.00  0.00    +0.145 C 
BRANCH  16  17
ATOM     17  N   LYS A   1      16.661   3.600  20.031  0.00  0.00    -0.238 NA
ATOM     18  H   LYS A   1      17.588   3.680  20.497  0.00  0.00    +0.142 HD
ENDBRANCH  16  17
BRANCH  16  19
ATOM     19  CB  LYS A   1      15.556   1.575  20.898  0.00  0.00    +0.026 C 
BRANCH  19  20
ATOM     20  CG  LYS A   1      14.892   0.807  19.691  0.00  0.00    -0.000 C 
BRANCH  20  21
ATOM     21  CD  LYS A   1      14.965  -0.744  19.871  0.00  0.00    -0.024 C 
BRANCH  21  22
ATOM     22  CE  LYS A   1      14.934  -1.561  18.530  0.00  0.00    -0.086 C 
BRANCH  22  23
ATOM     23  NZ  LYS A   1      13.568  -1.676  17.911  0.00  0.00    +0.380 N 
ATOM     24  HZ1 LYS A   1      12.927  -2.154  18.576  0.00  0.00    -0.089 HD
ATOM     25  HZ2 LYS A   1      13.204  -0.725  17.699  0.00  0.00    -0.089 HD
ATOM     26  HZ3 LYS A   1      13.632  -2.228  17.032  0.00  0.00    -0.089 HD
ENDBRANCH  22  23
ENDBRANCH  21  22
ENDBRANCH  20  21
ENDBRANCH  19  20
ENDBRANCH  16  19
ENDBRANCH  12  16
ENDBRANCH  11  14
BRANCH  11  27
ATOM     27  CB  ILE A   2      13.053   5.643  24.058  0.00  0.00    +0.027 C 
ATOM     28  CG2 ILE A   2      12.793   6.077  25.520  0.00  0.00    +0.002 C 
BRANCH  27  29
ATOM     29  CG1 ILE A   2      13.239   6.818  23.112  0.00  0.00    +0.002 C 
ATOM     30  CD1 ILE A   2      12.206   7.879  23.188  0.00  0.00    +0.000 C 
ENDBRANCH  27  29
ENDBRANCH  11  27
ENDBRANCH   7  11
ENDBRANCH   6   8
BRANCH   6  31
ATOM     31  CB  LEU A   3      15.416   1.395  26.759  0.00  0.00    +0.029 C 
BRANCH  31  32
ATOM     32  CG  LEU A   3      16.931   1.607  26.723  0.00  0.00    +0.002 C 
ATOM     33  CD2 LEU A   3      17.532   1.630  28.109  0.00  0.00    +0.000 C 
ATOM     34  CD1 LEU A   3      17.613   0.523  25.922  0.00  0.00    +0.000 C 
ENDBRANCH  31  32
ENDBRANCH   6  31
ENDBRANCH   2   6
ENDBRANCH   1   3
BRANCH   1  35
ATOM     35  C   ASP A   4      15.227   1.414  31.497  0.00  0.00    +0.241 C 
ATOM     36  O   ASP A   4      14.490   0.474  31.830  0.00  0.00    -0.273 OA
ATOM     37  N   PHE A   5      16.538   1.393  31.715  0.00  0.00    -0.297 N 
ATOM     38  H   PHE A   5      17.135   2.169  31.364  0.00  0.00    +0.150 HD
BRANCH  37  39
ATOM     39  CA  PHE A   5      17.150   0.268  32.455  0.00  0.00    +0.153 C 
BRANCH  39  40
ATOM     40  C   PHE A   5      16.406  -0.058  33.800  0.00  0.00    +0.241 C 
ATOM     41  N   GLY A   6      16.051   0.991  34.531  0.00  0.00    -0.295 N 
ATOM     42  H   GLY A   6      16.322   1.939  34.200  0.00  0.00    +0.150 HD
ATOM     43  O   PHE A   5      16.174  -1.230  34.142  0.00  0.00    -0.273 OA
BRANCH  41  44
ATOM     44  CA  GLY A   6      15.301   0.881  35.774  0.00  0.00    +0.176 C 
BRANCH  44  45
ATOM     45  C   GLY A   6      15.952   0.034  36.841  0.00  0.00    +0.243 C 
ATOM     46  O   GLY A   6      15.258  -0.612  37.625  0.00  0.00    -0.273 OA
ATOM     47  N   LEU A   7      17.277   0.029  36.899  0.00  0.00    -0.297 N 
ATOM     48  H   LEU A   7      17.821   0.626  36.244  0.00  0.00    +0.150 HD
BRANCH  47  49
ATOM     49  CA  LEU A   7      17.983  -0.803  37.870  0.00  0.00    +0.149 C 
BRANCH  49  50
ATOM     50  C   LEU A   7      18.132  -0.161  39.263  0.00  0.00    +0.241 C 
ATOM     51  O   LEU A   7      18.244  -0.867  40.265  0.00  0.00    -0.273 OA
ATOM     52  N   ALA A   8      18.097   1.170  39.312  0.00  0.00    -0.298 N 
ATOM     53  H   ALA A   8      17.873   1.692  38.441  0.00  0.00    +0.150 HD
BRANCH  52  54
ATOM     54  CA  ALA A   8      18.359   1.932  40.532  0.00  0.00    +0.137 C 
ATOM     55  CB  ALA A   8      19.373   3.023  40.233  0.00  0.00    +0.030 C 
BRANCH  54  56
ATOM     56  C   ALA A   8      17.108   2.575  41.149  0.00  0.00    +0.227 C 
ATOM     57  O   ALA A   8      16.192   3.000  40.442  0.00  0.00    -0.286 OA
ENDBRANCH  54  56
ENDBRANCH  52  54
ENDBRANCH  49  50
BRANCH  49  58
ATOM     58  CB  LEU A   7      19.343  -1.215  37.308  0.00  0.00    +0.029 C 
BRANCH  58  59
ATOM     59  CG  LEU A   7      19.281  -2.060  36.028  0.00  0.00    +0.002 C 
ATOM     60  CD2 LEU A   7      18.290  -3.226  36.150  0.00  0.00    +0.000 C 
ATOM     61  CD1 LEU A   7      20.692  -2.565  35.632  0.00  0.00    +0.000 C 
ENDBRANCH  58  59
ENDBRANCH  49  58
ENDBRANCH  47  49
ENDBRANCH  44  45
ENDBRANCH  41  44
ENDBRANCH  39  40
BRANCH  39  62
ATOM     62  CB  PHE A   5      18.659   0.515  32.682  0.00  0.00    +0.055 C 
BRANCH  62  63
ATOM     63  CG  PHE A   5      19.508   0.070  31.515  0.00  0.00    -0.020 A 
ATOM     64  CD2 PHE A   5      20.194  -1.144  31.548  0.00  0.00    -0.004 A 
ATOM     65  CE2 PHE A   5      20.955  -1.576  30.468  0.00  0.00    -0.000 A 
ATOM     66  CZ  PHE A   5      21.039  -0.809  29.323  0.00  0.00    -0.000 A 
ATOM     67  CE1 PHE A   5      20.357   0.405  29.258  0.00  0.00    -0.000 A 
ATOM     68  CD1 PHE A   5      19.588   0.845  30.364  0.00  0.00    -0.004 A 
ENDBRANCH  62  63
ENDBRANCH  39  62
ENDBRANCH  37  39
ENDBRANCH   1  35
BRANCH   1  69
ATOM     69  CB  ASP A   4      13.351   3.062  31.457  0.00  0.00    +0.143 C 
BRANCH  69  70
ATOM     70  CG  ASP A   4      13.566   3.692  32.817  0.00  0.00    +0.367 C 
ATOM     71  OD2 ASP A   4      14.591   3.412  33.468  0.00  0.00    -0.246 OA
ATOM     72  OD1 ASP A   4      12.768   4.503  33.297  0.00  0.00    -0.246 OA
ENDBRANCH  69  70
ENDBRANCH   1  69
TORSDOF 31
REMARK  Name = ../refined-set-2016/2baj/2baj_pocket.pdb
REMARK  254 active torsions:
REMARK  status: ('A' for Active; 'I' for Inactive)
REMARK    1  A    between atoms: _1  and  _3
REMARK    2  A    between atoms: _3  and  _4
REMARK    3  A    between atoms: _3  and  _6
REMARK    4  A    between atoms: _6  and  _7
REMARK    5  A    between atoms: _17  and  _19
REMARK    6  A    between atoms: _19  and  _20
REMARK    7  A    between atoms: _19  and  _22
REMARK    8  A    between atoms: _25  and  _27
REMARK    9  A    between atoms: _27  and  _28
REMARK   10  A    between atoms: _27  and  _30
REMARK   11  A    between atoms: _30  and  _31
REMARK   12  A    between atoms: _36  and  _37
REMARK   13  A    between atoms: _39  and  _41
REMARK   14  A    between atoms: _41  and  _42
REMARK   15  A    between atoms: _41  and  _44
REMARK   16  A    between atoms: _44  and  _45
REMARK   17  A    between atoms: _47  and  _49
REMARK   18  A    between atoms: _49  and  _50
REMARK   19  A    between atoms: _49  and  _52
REMARK   20  A    between atoms: _55  and  _57
REMARK   21  A    between atoms: _57  and  _58
REMARK   22  A    between atoms: _57  and  _60
REMARK   23  A    between atoms: _62  and  _64
REMARK   24  A    between atoms: _64  and  _65
REMARK   25  A    between atoms: _68  and  _70
REMARK   26  A    between atoms: _70  and  _71
REMARK   27  A    between atoms: _70  and  _73
REMARK   28  A    between atoms: _76  and  _78
REMARK   29  A    between atoms: _78  and  _79
REMARK   30  A    between atoms: _82  and  _84
REMARK   31  A    between atoms: _84  and  _85
REMARK   32  A    between atoms: _84  and  _87
REMARK   33  A    between atoms: _90  and  _92
REMARK   34  A    between atoms: _92  and  _93
REMARK   35  A    between atoms: _92  and  _95
REMARK   36  A    between atoms: _95  and  _96
REMARK   37  A    between atoms: _96  and  _97
REMARK   38  A    between atoms: _97  and  _98
REMARK   39  A    between atoms: _98  and  _99
REMARK   40  A    between atoms: _103  and  _105
REMARK   41  A    between atoms: _105  and  _106
REMARK   42  A    between atoms: _105  and  _108
REMARK   43  A    between atoms: _108  and  _109
REMARK   44  A    between atoms: _109  and  _110
REMARK   45  A    between atoms: _110  and  _111
REMARK   46  A    between atoms: _111  and  _112
REMARK   47  A    between atoms: _116  and  _118
REMARK   48  A    between atoms: _118  and  _119
REMARK   49  A    between atoms: _118  and  _121
REMARK   50  A    between atoms: _121  and  _122
REMARK   51  A    between atoms: _125  and  _127
REMARK   52  A    between atoms: _127  and  _128
REMARK   53  A    between atoms: _127  and  _130
REMARK   54  A    between atoms: _130  and  _131
REMARK   55  A    between atoms: _131  and  _132
REMARK   56  A    between atoms: _132  and  _133
REMARK   57  A    between atoms: _133  and  _134
REMARK   58  A    between atoms: _138  and  _140
REMARK   59  A    between atoms: _140  and  _141
REMARK   60  A    between atoms: _140  and  _143
REMARK   61  A    between atoms: _143  and  _144
REMARK   62  A    between atoms: _144  and  _145
REMARK   63  A    between atoms: _145  and  _146
REMARK   64  A    between atoms: _155  and  _157
REMARK   65  A    between atoms: _157  and  _158
REMARK   66  A    between atoms: _157  and  _160
REMARK   67  A    between atoms: _160  and  _161
REMARK   68  A    between atoms: _164  and  _166
REMARK   69  A    between atoms: _166  and  _167
REMARK   70  A    between atoms: _166  and  _169
REMARK   71  A    between atoms: _169  and  _170
REMARK   72  A    between atoms: _175  and  _176
REMARK   73  A    between atoms: _178  and  _180
REMARK   74  A    between atoms: _180  and  _181
REMARK   75  A    between atoms: _180  and  _183
REMARK   76  A    between atoms: _183  and  _184
REMARK   77  A    between atoms: _184  and  _185
REMARK   78  A    between atoms: _185  and  _186
REMARK   79  A    between atoms: _195  and  _197
REMARK   80  A    between atoms: _197  and  _198
REMARK   81  A    between atoms: _197  and  _200
REMARK   82  A    between atoms: _200  and  _201
REMARK   83  A    between atoms: _201  and  _202
REMARK   84  A    between atoms: _205  and  _207
REMARK   85  A    between atoms: _207  and  _208
REMARK   86  A    between atoms: _207  and  _210
REMARK   87  A    between atoms: _210  and  _211
REMARK   88  A    between atoms: _214  and  _216
REMARK   89  A    between atoms: _216  and  _217
REMARK   90  A    between atoms: _216  and  _219
REMARK   91  A    between atoms: _219  and  _220
REMARK   92  A    between atoms: _220  and  _221
REMARK   93  A    between atoms: _221  and  _222
REMARK   94  A    between atoms: _231  and  _233
REMARK   95  A    between atoms: _233  and  _234
REMARK   96  A    between atoms: _233  and  _236
REMARK   97  A    between atoms: _236  and  _237
REMARK   98  A    between atoms: _240  and  _242
REMARK   99  A    between atoms: _242  and  _243
REMARK  100  A    between atoms: _242  and  _245
REMARK  101  A    between atoms: _245  and  _246
REMARK  102  A    between atoms: _249  and  _251
REMARK  103  A    between atoms: _251  and  _252
REMARK  104  A    between atoms: _251  and  _254
REMARK  105  A    between atoms: _254  and  _255
REMARK  106  A    between atoms: _260  and  _262
REMARK  107  A    between atoms: _262  and  _263
REMARK  108  A    between atoms: _262  and  _265
REMARK  109  A    between atoms: _265  and  _266
REMARK  110  A    between atoms: _266  and  _267
REMARK  111  A    between atoms: _269  and  _271
REMARK  112  A    between atoms: _271  and  _272
REMARK  113  A    between atoms: _271  and  _274
REMARK  114  A    between atoms: _274  and  _275
REMARK  115  A    between atoms: _280  and  _282
REMARK  116  A    between atoms: _282  and  _283
REMARK  117  A    between atoms: _282  and  _285
REMARK  118  A    between atoms: _288  and  _290
REMARK  119  A    between atoms: _290  and  _291
REMARK  120  A    between atoms: _290  and  _293
REMARK  121  A    between atoms: _293  and  _294
REMARK  122  A    between atoms: _297  and  _299
REMARK  123  A    between atoms: _299  and  _300
REMARK  124  A    between atoms: _302  and  _304
REMARK  125  A    between atoms: _304  and  _305
REMARK  126  A    between atoms: _304  and  _307
REMARK  127  A    between atoms: _307  and  _308
REMARK  128  A    between atoms: _311  and  _313
REMARK  129  A    between atoms: _313  and  _314
REMARK  130  A    between atoms: _313  and  _316
REMARK  131  A    between atoms: _316  and  _317
REMARK  132  A    between atoms: _320  and  _322
REMARK  133  A    between atoms: _322  and  _323
REMARK  134  A    between atoms: _322  and  _325
REMARK  135  A    between atoms: _325  and  _326
REMARK  136  A    between atoms: _329  and  _331
REMARK  137  A    between atoms: _331  and  _332
REMARK  138  A    between atoms: _331  and  _334
REMARK  139  A    between atoms: _334  and  _335
REMARK  140  A    between atoms: _340  and  _341
REMARK  141  A    between atoms: _343  and  _345
REMARK  142  A    between atoms: _345  and  _346
REMARK  143  A    between atoms: _345  and  _348
REMARK  144  A    between atoms: _348  and  _349
REMARK  145  A    between atoms: _352  and  _354
REMARK  146  A    between atoms: _354  and  _355
REMARK  147  A    between atoms: _354  and  _357
REMARK  148  A    between atoms: _360  and  _362
REMARK  149  A    between atoms: _362  and  _363
REMARK  150  A    between atoms: _362  and  _365
REMARK  151  A    between atoms: _365  and  _366
REMARK  152  A    between atoms: _369  and  _371
REMARK  153  A    between atoms: _371  and  _372
REMARK  154  A    between atoms: _371  and  _374
REMARK  155  A    between atoms: _374  and  _375
REMARK  156  A    between atoms: _380  and  _382
REMARK  157  A    between atoms: _382  and  _383
REMARK  158  A    between atoms: _382  and  _385
REMARK  159  A    between atoms: _385  and  _386
REMARK  160  A    between atoms: _389  and  _391
REMARK  161  A    between atoms: _391  and  _392
REMARK  162  A    between atoms: _391  and  _394
REMARK  163  A    between atoms: _394  and  _395
REMARK  164  A    between atoms: _395  and  _396
REMARK  165  A    between atoms: _398  and  _400
REMARK  166  A    between atoms: _400  and  _401
REMARK  167  A    between atoms: _403  and  _405
REMARK  168  A    between atoms: _405  and  _406
REMARK  169  A    between atoms: _405  and  _408
REMARK  170  A    between atoms: _408  and  _409
REMARK  171  A    between atoms: _412  and  _414
REMARK  172  A    between atoms: _414  and  _415
REMARK  173  A    between atoms: _414  and  _417
REMARK  174  A    between atoms: _417  and  _418
REMARK  175  A    between atoms: _423  and  _424
REMARK  176  A    between atoms: _426  and  _428
REMARK  177  A    between atoms: _428  and  _429
REMARK  178  A    between atoms: _428  and  _431
REMARK  179  A    between atoms: _431  and  _432
REMARK  180  A    between atoms: _435  and  _437
REMARK  181  A    between atoms: _437  and  _438
REMARK  182  A    between atoms: _437  and  _440
REMARK  183  A    between atoms: _440  and  _441
REMARK  184  A    between atoms: _444  and  _446
REMARK  185  A    between atoms: _446  and  _447
REMARK  186  A    between atoms: _446  and  _449
REMARK  187  A    between atoms: _449  and  _450
REMARK  188  A    between atoms: _453  and  _455
REMARK  189  A    between atoms: _455  and  _456
REMARK  190  A    between atoms: _455  and  _458
REMARK  191  A    between atoms: _458  and  _459
REMARK  192  A    between atoms: _464  and  _466
REMARK  193  A    between atoms: _466  and  _467
REMARK  194  A    between atoms: _466  and  _469
REMARK  195  A    between atoms: _469  and  _470
REMARK  196  A    between atoms: _470  and  _471
REMARK  197  A    between atoms: _471  and  _472
REMARK  198  A    between atoms: _481  and  _483
REMARK  199  A    between atoms: _483  and  _484
REMARK  200  A    between atoms: _483  and  _486
REMARK  201  A    between atoms: _486  and  _487
REMARK  202  A    between atoms: _490  and  _492
REMARK  203  A    between atoms: _492  and  _493
REMARK  204  A    between atoms: _492  and  _495
REMARK  205  A    between atoms: _495  and  _496
REMARK  206  A    between atoms: _499  and  _501
REMARK  207  A    between atoms: _501  and  _502
REMARK  208  A    between atoms: _501  and  _504
REMARK  209  A    between atoms: _504  and  _505
REMARK  210  A    between atoms: _507  and  _509
REMARK  211  A    between atoms: _509  and  _510
REMARK  212  A    between atoms: _509  and  _512
REMARK  213  A    between atoms: _512  and  _513
REMARK  214  A    between atoms: _518  and  _520
REMARK  215  A    between atoms: _520  and  _521
REMARK  216  A    between atoms: _524  and  _526
REMARK  217  A    between atoms: _526  and  _527
REMARK  218  A    between atoms: _526  and  _529
REMARK  219  A    between atoms: _529  and  _530
REMARK  220  A    between atoms: _530  and  _531
REMARK  221  A    between atoms: _531  and  _532
REMARK  222  A    between atoms: _532  and  _533
REMARK  223  A    between atoms: _537  and  _539
REMARK  224  A    between atoms: _539  and  _540
REMARK  225  A    between atoms: _539  and  _542
REMARK  226  A    between atoms: _542  and  _543
REMARK  227  A    between atoms: _546  and  _548
REMARK  228  A    between atoms: _548  and  _549
REMARK  229  A    between atoms: _548  and  _551
REMARK  230  A    between atoms: _551  and  _552
REMARK  231  A    between atoms: _555  and  _557
REMARK  232  A    between atoms: _557  and  _558
REMARK  233  A    between atoms: _557  and  _560
REMARK  234  A    between atoms: _560  and  _561
REMARK  235  A    between atoms: _564  and  _566
REMARK  236  A    between atoms: _566  and  _567
REMARK  237  A    between atoms: _566  and  _569
REMARK  238  A    between atoms: _569  and  _570
REMARK  239  A    between atoms: _576  and  _578
REMARK  240  A    between atoms: _578  and  _579
REMARK  241  A    between atoms: _581  and  _583
REMARK  242  A    between atoms: _583  and  _584
REMARK  243  A    between atoms: _583  and  _586
REMARK  244  A    between atoms: _586  and  _587
REMARK  245  A    between atoms: _590  and  _592
REMARK  246  A    between atoms: _592  and  _593
REMARK  247  A    between atoms: _596  and  _598
REMARK  248  A    between atoms: _598  and  _599
REMARK  249  A    between atoms: _598  and  _601
REMARK  250  A    between atoms: _601  and  _602
REMARK  251  A    between atoms: _607  and  _609
REMARK  252  A    between atoms: _609  and  _610
REMARK  253  A    between atoms: _609  and  _612
REMARK  254  A    between atoms: _612  and  _613
REMARK                            x       y       z     vdW  Elec       q    Type
REMARK                         _______ _______ _______ _____ _____    ______ ____
ROOT
ATOM      1  CB  HIS A   1      13.970   7.397  41.169  0.00  0.00    +0.072 C 
ENDROOT
BRANCH   1   2
ATOM      2  CG  HIS A   1      13.955   6.866  39.762  0.00  0.00    +0.082 A 
ATOM      3  CD2 HIS A   1      13.200   5.899  39.183  0.00  0.00    +0.115 A 
ATOM      4  NE2 HIS A   1      13.592   5.811  37.871  0.00  0.00    -0.221 NA
ATOM      5  CE1 HIS A   1      14.555   6.686  37.652  0.00  0.00    +0.199 A 
ATOM      6  ND1 HIS A   1      14.798   7.333  38.778  0.00  0.00    -0.227 NA
ENDBRANCH   1   2
BRANCH   1   7
ATOM      7  CA  HIS A   1      15.222   7.002  41.969  0.00  0.00    +0.139 C 
BRANCH   7   8
ATOM      8  N   HIS A   1      15.200   5.583  42.329  0.00  0.00    -0.239 NA
ATOM      9  H   HIS A   1      14.308   5.055  42.246  0.00  0.00    +0.142 HD
ENDBRANCH   7   8
BRANCH   7  10
ATOM     10  C   HIS A   1      15.355   7.855  43.238  0.00  0.00    +0.224 C 
ATOM     11  O   HIS A   1      14.499   7.806  44.114  0.00  0.00    -0.287 OA
ENDBRANCH   7  10
ENDBRANCH   1   7
TORSDOF 4
REMARK  Name = ../refined-set-2016/2baj/2baj_pocket.pdb
REMARK  254 active torsions:
REMARK  status: ('A' for Active; 'I' for Inactive)
REMARK    1  A    between atoms: _1  and  _3
REMARK    2  A    between atoms: _3  and  _4
REMARK    3  A    between atoms: _3  and  _6
REMARK    4  A    between atoms: _6  and  _7
REMARK    5  A    between atoms: _17  and  _19
REMARK    6  A    between atoms: _19  and  _20
REMARK    7  A    between atoms: _19  and  _22
REMARK    8  A    between atoms: _25  and  _27
REMARK    9  A    between atoms: _27  and  _28
REMARK   10  A    between atoms: _27  and  _30
REMARK   11  A    between atoms: _30  and  _31
REMARK   12  A    between atoms: _36  and  _37
REMARK   13  A    between atoms: _39  and  _41
REMARK   14  A    between atoms: _41  and  _42
REMARK   15  A    between atoms: _41  and  _44
REMARK   16  A    between atoms: _44  and  _45
REMARK   17  A    between atoms: _47  and  _49
REMARK   18  A    between atoms: _49  and  _50
REMARK   19  A    between atoms: _49  and  _52
REMARK   20  A    between atoms: _55  and  _57
REMARK   21  A    between atoms: _57  and  _58
REMARK   22  A    between atoms: _57  and  _60
REMARK   23  A    between atoms: _62  and  _64
REMARK   24  A    between atoms: _64  and  _65
REMARK   25  A    between atoms: _68  and  _70
REMARK   26  A    between atoms: _70  and  _71
REMARK   27  A    between atoms: _70  and  _73
REMARK   28  A    between atoms: _76  and  _78
REMARK   29  A    between atoms: _78  and  _79
REMARK   30  A    between atoms: _82  and  _84
REMARK   31  A    between atoms: _84  and  _85
REMARK   32  A    between atoms: _84  and  _87
REMARK   33  A    between atoms: _90  and  _92
REMARK   34  A    between atoms: _92  and  _93
REMARK   35  A    between atoms: _92  and  _95
REMARK   36  A    between atoms: _95  and  _96
REMARK   37  A    between atoms: _96  and  _97
REMARK   38  A    between atoms: _97  and  _98
REMARK   39  A    between atoms: _98  and  _99
REMARK   40  A    between atoms: _103  and  _105
REMARK   41  A    between atoms: _105  and  _106
REMARK   42  A    between atoms: _105  and  _108
REMARK   43  A    between atoms: _108  and  _109
REMARK   44  A    between atoms: _109  and  _110
REMARK   45  A    between atoms: _110  and  _111
REMARK   46  A    between atoms: _111  and  _112
REMARK   47  A    between atoms: _116  and  _118
REMARK   48  A    between atoms: _118  and  _119
REMARK   49  A    between atoms: _118  and  _121
REMARK   50  A    between atoms: _121  and  _122
REMARK   51  A    between atoms: _125  and  _127
REMARK   52  A    between atoms: _127  and  _128
REMARK   53  A    between atoms: _127  and  _130
REMARK   54  A    between atoms: _130  and  _131
REMARK   55  A    between atoms: _131  and  _132
REMARK   56  A    between atoms: _132  and  _133
REMARK   57  A    between atoms: _133  and  _134
REMARK   58  A    between atoms: _138  and  _140
REMARK   59  A    between atoms: _140  and  _141
REMARK   60  A    between atoms: _140  and  _143
REMARK   61  A    between atoms: _143  and  _144
REMARK   62  A    between atoms: _144  and  _145
REMARK   63  A    between atoms: _145  and  _146
REMARK   64  A    between atoms: _155  and  _157
REMARK   65  A    between atoms: _157  and  _158
REMARK   66  A    between atoms: _157  and  _160
REMARK   67  A    between atoms: _160  and  _161
REMARK   68  A    between atoms: _164  and  _166
REMARK   69  A    between atoms: _166  and  _167
REMARK   70  A    between atoms: _166  and  _169
REMARK   71  A    between atoms: _169  and  _170
REMARK   72  A    between atoms: _175  and  _176
REMARK   73  A    between atoms: _178  and  _180
REMARK   74  A    between atoms: _180  and  _181
REMARK   75  A    between atoms: _180  and  _183
REMARK   76  A    between atoms: _183  and  _184
REMARK   77  A    between atoms: _184  and  _185
REMARK   78  A    between atoms: _185  and  _186
REMARK   79  A    between atoms: _195  and  _197
REMARK   80  A    between atoms: _197  and  _198
REMARK   81  A    between atoms: _197  and  _200
REMARK   82  A    between atoms: _200  and  _201
REMARK   83  A    between atoms: _201  and  _202
REMARK   84  A    between atoms: _205  and  _207
REMARK   85  A    between atoms: _207  and  _208
REMARK   86  A    between atoms: _207  and  _210
REMARK   87  A    between atoms: _210  and  _211
REMARK   88  A    between atoms: _214  and  _216
REMARK   89  A    between atoms: _216  and  _217
REMARK   90  A    between atoms: _216  and  _219
REMARK   91  A    between atoms: _219  and  _220
REMARK   92  A    between atoms: _220  and  _221
REMARK   93  A    between atoms: _221  and  _222
REMARK   94  A    between atoms: _231  and  _233
REMARK   95  A    between atoms: _233  and  _234
REMARK   96  A    between atoms: _233  and  _236
REMARK   97  A    between atoms: _236  and  _237
REMARK   98  A    between atoms: _240  and  _242
REMARK   99  A    between atoms: _242  and  _243
REMARK  100  A    between atoms: _242  and  _245
REMARK  101  A    between atoms: _245  and  _246
REMARK  102  A    between atoms: _249  and  _251
REMARK  103  A    between atoms: _251  and  _252
REMARK  104  A    between atoms: _251  and  _254
REMARK  105  A    between atoms: _254  and  _255
REMARK  106  A    between atoms: _260  and  _262
REMARK  107  A    between atoms: _262  and  _263
REMARK  108  A    between atoms: _262  and  _265
REMARK  109  A    between atoms: _265  and  _266
REMARK  110  A    between atoms: _266  and  _267
REMARK  111  A    between atoms: _269  and  _271
REMARK  112  A    between atoms: _271  and  _272
REMARK  113  A    between atoms: _271  and  _274
REMARK  114  A    between atoms: _274  and  _275
REMARK  115  A    between atoms: _280  and  _282
REMARK  116  A    between atoms: _282  and  _283
REMARK  117  A    between atoms: _282  and  _285
REMARK  118  A    between atoms: _288  and  _290
REMARK  119  A    between atoms: _290  and  _291
REMARK  120  A    between atoms: _290  and  _293
REMARK  121  A    between atoms: _293  and  _294
REMARK  122  A    between atoms: _297  and  _299
REMARK  123  A    between atoms: _299  and  _300
REMARK  124  A    between atoms: _302  and  _304
REMARK  125  A    between atoms: _304  and  _305
REMARK  126  A    between atoms: _304  and  _307
REMARK  127  A    between atoms: _307  and  _308
REMARK  128  A    between atoms: _311  and  _313
REMARK  129  A    between atoms: _313  and  _314
REMARK  130  A    between atoms: _313  and  _316
REMARK  131  A    between atoms: _316  and  _317
REMARK  132  A    between atoms: _320  and  _322
REMARK  133  A    between atoms: _322  and  _323
REMARK  134  A    between atoms: _322  and  _325
REMARK  135  A    between atoms: _325  and  _326
REMARK  136  A    between atoms: _329  and  _331
REMARK  137  A    between atoms: _331  and  _332
REMARK  138  A    between atoms: _331  and  _334
REMARK  139  A    between atoms: _334  and  _335
REMARK  140  A    between atoms: _340  and  _341
REMARK  141  A    between atoms: _343  and  _345
REMARK  142  A    between atoms: _345  and  _346
REMARK  143  A    between atoms: _345  and  _348
REMARK  144  A    between atoms: _348  and  _349
REMARK  145  A    between atoms: _352  and  _354
REMARK  146  A    between atoms: _354  and  _355
REMARK  147  A    between atoms: _354  and  _357
REMARK  148  A    between atoms: _360  and  _362
REMARK  149  A    between atoms: _362  and  _363
REMARK  150  A    between atoms: _362  and  _365
REMARK  151  A    between atoms: _365  and  _366
REMARK  152  A    between atoms: _369  and  _371
REMARK  153  A    between atoms: _371  and  _372
REMARK  154  A    between atoms: _371  and  _374
REMARK  155  A    between atoms: _374  and  _375
REMARK  156  A    between atoms: _380  and  _382
REMARK  157  A    between atoms: _382  and  _383
REMARK  158  A    between atoms: _382  and  _385
REMARK  159  A    between atoms: _385  and  _386
REMARK  160  A    between atoms: _389  and  _391
REMARK  161  A    between atoms: _391  and  _392
REMARK  162  A    between atoms: _391  and  _394
REMARK  163  A    between atoms: _394  and  _395
REMARK  164  A    between atoms: _395  and  _396
REMARK  165  A    between atoms: _398  and  _400
REMARK  166  A    between atoms: _400  and  _401
REMARK  167  A    between atoms: _403  and  _405
REMARK  168  A    between atoms: _405  and  _406
REMARK  169  A    between atoms: _405  and  _408
REMARK  170  A    between atoms: _408  and  _409
REMARK  171  A    between atoms: _412  and  _414
REMARK  172  A    between atoms: _414  and  _415
REMARK  173  A    between atoms: _414  and  _417
REMARK  174  A    between atoms: _417  and  _418
REMARK  175  A    between atoms: _423  and  _424
REMARK  176  A    between atoms: _426  and  _428
REMARK  177  A    between atoms: _428  and  _429
REMARK  178  A    between atoms: _428  and  _431
REMARK  179  A    between atoms: _431  and  _432
REMARK  180  A    between atoms: _435  and  _437
REMARK  181  A    between atoms: _437  and  _438
REMARK  182  A    between atoms: _437  and  _440
REMARK  183  A    between atoms: _440  and  _441
REMARK  184  A    between atoms: _444  and  _446
REMARK  185  A    between atoms: _446  and  _447
REMARK  186  A    between atoms: _446  and  _449
REMARK  187  A    between atoms: _449  and  _450
REMARK  188  A    between atoms: _453  and  _455
REMARK  189  A    between atoms: _455  and  _456
REMARK  190  A    between atoms: _455  and  _458
REMARK  191  A    between atoms: _458  and  _459
REMARK  192  A    between atoms: _464  and  _466
REMARK  193  A    between atoms: _466  and  _467
REMARK  194  A    between atoms: _466  and  _469
REMARK  195  A    between atoms: _469  and  _470
REMARK  196  A    between atoms: _470  and  _471
REMARK  197  A    between atoms: _471  and  _472
REMARK  198  A    between atoms: _481  and  _483
REMARK  199  A    between atoms: _483  and  _484
REMARK  200  A    between atoms: _483  and  _486
REMARK  201  A    between atoms: _486  and  _487
REMARK  202  A    between atoms: _490  and  _492
REMARK  203  A    between atoms: _492  and  _493
REMARK  204  A    between atoms: _492  and  _495
REMARK  205  A    between atoms: _495  and  _496
REMARK  206  A    between atoms: _499  and  _501
REMARK  207  A    between atoms: _501  and  _502
REMARK  208  A    between atoms: _501  and  _504
REMARK  209  A    between atoms: _504  and  _505
REMARK  210  A    between atoms: _507  and  _509
REMARK  211  A    between atoms: _509  and  _510
REMARK  212  A    between atoms: _509  and  _512
REMARK  213  A    between atoms: _512  and  _513
REMARK  214  A    between atoms: _518  and  _520
REMARK  215  A    between atoms: _520  and  _521
REMARK  216  A    between atoms: _524  and  _526
REMARK  217  A    between atoms: _526  and  _527
REMARK  218  A    between atoms: _526  and  _529
REMARK  219  A    between atoms: _529  and  _530
REMARK  220  A    between atoms: _530  and  _531
REMARK  221  A    between atoms: _531  and  _532
REMARK  222  A    between atoms: _532  and  _533
REMARK  223  A    between atoms: _537  and  _539
REMARK  224  A    between atoms: _539  and  _540
REMARK  225  A    between atoms: _539  and  _542
REMARK  226  A    between atoms: _542  and  _543
REMARK  227  A    between atoms: _546  and  _548
REMARK  228  A    between atoms: _548  and  _549
REMARK  229  A    between atoms: _548  and  _551
REMARK  230  A    between atoms: _551  and  _552
REMARK  231  A    between atoms: _555  and  _557
REMARK  232  A    between atoms: _557  and  _558
REMARK  233  A    between atoms: _557  and  _560
REMARK  234  A    between atoms: _560  and  _561
REMARK  235  A    between atoms: _564  and  _566
REMARK  236  A    between atoms: _566  and  _567
REMARK  237  A    between atoms: _566  and  _569
REMARK  238  A    between atoms: _569  and  _570
REMARK  239  A    between atoms: _576  and  _578
REMARK  240  A    between atoms: _578  and  _579
REMARK  241  A    between atoms: _581  and  _583
REMARK  242  A    between atoms: _583  and  _584
REMARK  243  A    between atoms: _583  and  _586
REMARK  244  A    between atoms: _586  and  _587
REMARK  245  A    between atoms: _590  and  _592
REMARK  246  A    between atoms: _592  and  _593
REMARK  247  A    between atoms: _596  and  _598
REMARK  248  A    between atoms: _598  and  _599
REMARK  249  A    between atoms: _598  and  _601
REMARK  250  A    between atoms: _601  and  _602
REMARK  251  A    between atoms: _607  and  _609
REMARK  252  A    between atoms: _609  and  _610
REMARK  253  A    between atoms: _609  and  _612
REMARK  254  A    between atoms: _612  and  _613
REMARK                            x       y       z     vdW  Elec       q    Type
REMARK                         _______ _______ _______ _____ _____    ______ ____
ROOT
ATOM      1  CA  ASP A   1      10.583  14.607  28.728  0.00  0.00    +0.144 C 
ENDROOT
BRANCH   1   2
ATOM      2  N   ASP A   1       9.736  15.402  29.592  0.00  0.00    -0.239 NA
ATOM      3  H   ASP A   1       8.704  15.296  29.516  0.00  0.00    +0.142 HD
ENDBRANCH   1   2
BRANCH   1   4
ATOM      4  C   ASP A   1      11.240  15.426  27.658  0.00  0.00    +0.225 C 
ATOM      5  O   ASP A   1      12.326  15.100  27.254  0.00  0.00    -0.287 OA
ENDBRANCH   1   4
BRANCH   1   6
ATOM      6  CB  ASP A   1       9.808  13.477  28.027  0.00  0.00    +0.139 C 
BRANCH   6   7
ATOM      7  CG  ASP A   1       9.353  12.422  29.000  0.00  0.00    +0.367 C 
ATOM      8  OD2 ASP A   1       9.982  12.286  30.066  0.00  0.00    -0.246 OA
ATOM      9  OD1 ASP A   1       8.340  11.728  28.782  0.00  0.00    -0.246 OA
ENDBRANCH   6   7
ENDBRANCH   1   6
TORSDOF 4
REMARK  Name = ../refined-set-2016/2baj/2baj_pocket.pdb
REMARK  254 active torsions:
REMARK  status: ('A' for Active; 'I' for Inactive)
REMARK    1  A    between atoms: _1  and  _3
REMARK    2  A    between atoms: _3  and  _4
REMARK    3  A    between atoms: _3  and  _6
REMARK    4  A    between atoms: _6  and  _7
REMARK    5  A    between atoms: _17  and  _19
REMARK    6  A    between atoms: _19  and  _20
REMARK    7  A    between atoms: _19  and  _22
REMARK    8  A    between atoms: _25  and  _27
REMARK    9  A    between atoms: _27  and  _28
REMARK   10  A    between atoms: _27  and  _30
REMARK   11  A    between atoms: _30  and  _31
REMARK   12  A    between atoms: _36  and  _37
REMARK   13  A    between atoms: _39  and  _41
REMARK   14  A    between atoms: _41  and  _42
REMARK   15  A    between atoms: _41  and  _44
REMARK   16  A    between atoms: _44  and  _45
REMARK   17  A    between atoms: _47  and  _49
REMARK   18  A    between atoms: _49  and  _50
REMARK   19  A    between atoms: _49  and  _52
REMARK   20  A    between atoms: _55  and  _57
REMARK   21  A    between atoms: _57  and  _58
REMARK   22  A    between atoms: _57  and  _60
REMARK   23  A    between atoms: _62  and  _64
REMARK   24  A    between atoms: _64  and  _65
REMARK   25  A    between atoms: _68  and  _70
REMARK   26  A    between atoms: _70  and  _71
REMARK   27  A    between atoms: _70  and  _73
REMARK   28  A    between atoms: _76  and  _78
REMARK   29  A    between atoms: _78  and  _79
REMARK   30  A    between atoms: _82  and  _84
REMARK   31  A    between atoms: _84  and  _85
REMARK   32  A    between atoms: _84  and  _87
REMARK   33  A    between atoms: _90  and  _92
REMARK   34  A    between atoms: _92  and  _93
REMARK   35  A    between atoms: _92  and  _95
REMARK   36  A    between atoms: _95  and  _96
REMARK   37  A    between atoms: _96  and  _97
REMARK   38  A    between atoms: _97  and  _98
REMARK   39  A    between atoms: _98  and  _99
REMARK   40  A    between atoms: _103  and  _105
REMARK   41  A    between atoms: _105  and  _106
REMARK   42  A    between atoms: _105  and  _108
REMARK   43  A    between atoms: _108  and  _109
REMARK   44  A    between atoms: _109  and  _110
REMARK   45  A    between atoms: _110  and  _111
REMARK   46  A    between atoms: _111  and  _112
REMARK   47  A    between atoms: _116  and  _118
REMARK   48  A    between atoms: _118  and  _119
REMARK   49  A    between atoms: _118  and  _121
REMARK   50  A    between atoms: _121  and  _122
REMARK   51  A    between atoms: _125  and  _127
REMARK   52  A    between atoms: _127  and  _128
REMARK   53  A    between atoms: _127  and  _130
REMARK   54  A    between atoms: _130  and  _131
REMARK   55  A    between atoms: _131  and  _132
REMARK   56  A    between atoms: _132  and  _133
REMARK   57  A    between atoms: _133  and  _134
REMARK   58  A    between atoms: _138  and  _140
REMARK   59  A    between atoms: _140  and  _141
REMARK   60  A    between atoms: _140  and  _143
REMARK   61  A    between atoms: _143  and  _144
REMARK   62  A    between atoms: _144  and  _145
REMARK   63  A    between atoms: _145  and  _146
REMARK   64  A    between atoms: _155  and  _157
REMARK   65  A    between atoms: _157  and  _158
REMARK   66  A    between atoms: _157  and  _160
REMARK   67  A    between atoms: _160  and  _161
REMARK   68  A    between atoms: _164  and  _166
REMARK   69  A    between atoms: _166  and  _167
REMARK   70  A    between atoms: _166  and  _169
REMARK   71  A    between atoms: _169  and  _170
REMARK   72  A    between atoms: _175  and  _176
REMARK   73  A    between atoms: _178  and  _180
REMARK   74  A    between atoms: _180  and  _181
REMARK   75  A    between atoms: _180  and  _183
REMARK   76  A    between atoms: _183  and  _184
REMARK   77  A    between atoms: _184  and  _185
REMARK   78  A    between atoms: _185  and  _186
REMARK   79  A    between atoms: _195  and  _197
REMARK   80  A    between atoms: _197  and  _198
REMARK   81  A    between atoms: _197  and  _200
REMARK   82  A    between atoms: _200  and  _201
REMARK   83  A    between atoms: _201  and  _202
REMARK   84  A    between atoms: _205  and  _207
REMARK   85  A    between atoms: _207  and  _208
REMARK   86  A    between atoms: _207  and  _210
REMARK   87  A    between atoms: _210  and  _211
REMARK   88  A    between atoms: _214  and  _216
REMARK   89  A    between atoms: _216  and  _217
REMARK   90  A    between atoms: _216  and  _219
REMARK   91  A    between atoms: _219  and  _220
REMARK   92  A    between atoms: _220  and  _221
REMARK   93  A    between atoms: _221  and  _222
REMARK   94  A    between atoms: _231  and  _233
REMARK   95  A    between atoms: _233  and  _234
REMARK   96  A    between atoms: _233  and  _236
REMARK   97  A    between atoms: _236  and  _237
REMARK   98  A    between atoms: _240  and  _242
REMARK   99  A    between atoms: _242  and  _243
REMARK  100  A    between atoms: _242  and  _245
REMARK  101  A    between atoms: _245  and  _246
REMARK  102  A    between atoms: _249  and  _251
REMARK  103  A    between atoms: _251  and  _252
REMARK  104  A    between atoms: _251  and  _254
REMARK  105  A    between atoms: _254  and  _255
REMARK  106  A    between atoms: _260  and  _262
REMARK  107  A    between atoms: _262  and  _263
REMARK  108  A    between atoms: _262  and  _265
REMARK  109  A    between atoms: _265  and  _266
REMARK  110  A    between atoms: _266  and  _267
REMARK  111  A    between atoms: _269  and  _271
REMARK  112  A    between atoms: _271  and  _272
REMARK  113  A    between atoms: _271  and  _274
REMARK  114  A    between atoms: _274  and  _275
REMARK  115  A    between atoms: _280  and  _282
REMARK  116  A    between atoms: _282  and  _283
REMARK  117  A    between atoms: _282  and  _285
REMARK  118  A    between atoms: _288  and  _290
REMARK  119  A    between atoms: _290  and  _291
REMARK  120  A    between atoms: _290  and  _293
REMARK  121  A    between atoms: _293  and  _294
REMARK  122  A    between atoms: _297  and  _299
REMARK  123  A    between atoms: _299  and  _300
REMARK  124  A    between atoms: _302  and  _304
REMARK  125  A    between atoms: _304  and  _305
REMARK  126  A    between atoms: _304  and  _307
REMARK  127  A    between atoms: _307  and  _308
REMARK  128  A    between atoms: _311  and  _313
REMARK  129  A    between atoms: _313  and  _314
REMARK  130  A    between atoms: _313  and  _316
REMARK  131  A    between atoms: _316  and  _317
REMARK  132  A    between atoms: _320  and  _322
REMARK  133  A    between atoms: _322  and  _323
REMARK  134  A    between atoms: _322  and  _325
REMARK  135  A    between atoms: _325  and  _326
REMARK  136  A    between atoms: _329  and  _331
REMARK  137  A    between atoms: _331  and  _332
REMARK  138  A    between atoms: _331  and  _334
REMARK  139  A    between atoms: _334  and  _335
REMARK  140  A    between atoms: _340  and  _341
REMARK  141  A    between atoms: _343  and  _345
REMARK  142  A    between atoms: _345  and  _346
REMARK  143  A    between atoms: _345  and  _348
REMARK  144  A    between atoms: _348  and  _349
REMARK  145  A    between atoms: _352  and  _354
REMARK  146  A    between atoms: _354  and  _355
REMARK  147  A    between atoms: _354  and  _357
REMARK  148  A    between atoms: _360  and  _362
REMARK  149  A    between atoms: _362  and  _363
REMARK  150  A    between atoms: _362  and  _365
REMARK  151  A    between atoms: _365  and  _366
REMARK  152  A    between atoms: _369  and  _371
REMARK  153  A    between atoms: _371  and  _372
REMARK  154  A    between atoms: _371  and  _374
REMARK  155  A    between atoms: _374  and  _375
REMARK  156  A    between atoms: _380  and  _382
REMARK  157  A    between atoms: _382  and  _383
REMARK  158  A    between atoms: _382  and  _385
REMARK  159  A    between atoms: _385  and  _386
REMARK  160  A    between atoms: _389  and  _391
REMARK  161  A    between atoms: _391  and  _392
REMARK  162  A    between atoms: _391  and  _394
REMARK  163  A    between atoms: _394  and  _395
REMARK  164  A    between atoms: _395  and  _396
REMARK  165  A    between atoms: _398  and  _400
REMARK  166  A    between atoms: _400  and  _401
REMARK  167  A    between atoms: _403  and  _405
REMARK  168  A    between atoms: _405  and  _406
REMARK  169  A    between atoms: _405  and  _408
REMARK  170  A    between atoms: _408  and  _409
REMARK  171  A    between atoms: _412  and  _414
REMARK  172  A    between atoms: _414  and  _415
REMARK  173  A    between atoms: _414  and  _417
REMARK  174  A    between atoms: _417  and  _418
REMARK  175  A    between atoms: _423  and  _424
REMARK  176  A    between atoms: _426  and  _428
REMARK  177  A    between atoms: _428  and  _429
REMARK  178  A    between atoms: _428  and  _431
REMARK  179  A    between atoms: _431  and  _432
REMARK  180  A    between atoms: _435  and  _437
REMARK  181  A    between atoms: _437  and  _438
REMARK  182  A    between atoms: _437  and  _440
REMARK  183  A    between atoms: _440  and  _441
REMARK  184  A    between atoms: _444  and  _446
REMARK  185  A    between atoms: _446  and  _447
REMARK  186  A    between atoms: _446  and  _449
REMARK  187  A    between atoms: _449  and  _450
REMARK  188  A    between atoms: _453  and  _455
REMARK  189  A    between atoms: _455  and  _456
REMARK  190  A    between atoms: _455  and  _458
REMARK  191  A    between atoms: _458  and  _459
REMARK  192  A    between atoms: _464  and  _466
REMARK  193  A    between atoms: _466  and  _467
REMARK  194  A    between atoms: _466  and  _469
REMARK  195  A    between atoms: _469  and  _470
REMARK  196  A    between atoms: _470  and  _471
REMARK  197  A    between atoms: _471  and  _472
REMARK  198  A    between atoms: _481  and  _483
REMARK  199  A    between atoms: _483  and  _484
REMARK  200  A    between atoms: _483  and  _486
REMARK  201  A    between atoms: _486  and  _487
REMARK  202  A    between atoms: _490  and  _492
REMARK  203  A    between atoms: _492  and  _493
REMARK  204  A    between atoms: _492  and  _495
REMARK  205  A    between atoms: _495  and  _496
REMARK  206  A    between atoms: _499  and  _501
REMARK  207  A    between atoms: _501  and  _502
REMARK  208  A    between atoms: _501  and  _504
REMARK  209  A    between atoms: _504  and  _505
REMARK  210  A    between atoms: _507  and  _509
REMARK  211  A    between atoms: _509  and  _510
REMARK  212  A    between atoms: _509  and  _512
REMARK  213  A    between atoms: _512  and  _513
REMARK  214  A    between atoms: _518  and  _520
REMARK  215  A    between atoms: _520  and  _521
REMARK  216  A    between atoms: _524  and  _526
REMARK  217  A    between atoms: _526  and  _527
REMARK  218  A    between atoms: _526  and  _529
REMARK  219  A    between atoms: _529  and  _530
REMARK  220  A    between atoms: _530  and  _531
REMARK  221  A    between atoms: _531  and  _532
REMARK  222  A    between atoms: _532  and  _533
REMARK  223  A    between atoms: _537  and  _539
REMARK  224  A    between atoms: _539  and  _540
REMARK  225  A    between atoms: _539  and  _542
REMARK  226  A    between atoms: _542  and  _543
REMARK  227  A    between atoms: _546  and  _548
REMARK  228  A    between atoms: _548  and  _549
REMARK  229  A    between atoms: _548  and  _551
REMARK  230  A    between atoms: _551  and  _552
REMARK  231  A    between atoms: _555  and  _557
REMARK  232  A    between atoms: _557  and  _558
REMARK  233  A    between atoms: _557  and  _560
REMARK  234  A    between atoms: _560  and  _561
REMARK  235  A    between atoms: _564  and  _566
REMARK  236  A    between atoms: _566  and  _567
REMARK  237  A    between atoms: _566  and  _569
REMARK  238  A    between atoms: _569  and  _570
REMARK  239  A    between atoms: _576  and  _578
REMARK  240  A    between atoms: _578  and  _579
REMARK  241  A    between atoms: _581  and  _583
REMARK  242  A    between atoms: _583  and  _584
REMARK  243  A    between atoms: _583  and  _586
REMARK  244  A    between atoms: _586  and  _587
REMARK  245  A    between atoms: _590  and  _592
REMARK  246  A    between atoms: _592  and  _593
REMARK  247  A    between atoms: _596  and  _598
REMARK  248  A    between atoms: _598  and  _599
REMARK  249  A    between atoms: _598  and  _601
REMARK  250  A    between atoms: _601  and  _602
REMARK  251  A    between atoms: _607  and  _609
REMARK  252  A    between atoms: _609  and  _610
REMARK  253  A    between atoms: _609  and  _612
REMARK  254  A    between atoms: _612  and  _613
REMARK                            x       y       z     vdW  Elec       q    Type
REMARK                         _______ _______ _______ _____ _____    ______ ____
ROOT
ATOM      1  O   HOH     1       8.838  -1.409  20.892  0.00  0.00    +0.000 OA
ENDROOT
TORSDOF 0
REMARK  Name = ../refined-set-2016/2baj/2baj_pocket.pdb
REMARK  254 active torsions:
REMARK  status: ('A' for Active; 'I' for Inactive)
REMARK    1  A    between atoms: _1  and  _3
REMARK    2  A    between atoms: _3  and  _4
REMARK    3  A    between atoms: _3  and  _6
REMARK    4  A    between atoms: _6  and  _7
REMARK    5  A    between atoms: _17  and  _19
REMARK    6  A    between atoms: _19  and  _20
REMARK    7  A    between atoms: _19  and  _22
REMARK    8  A    between atoms: _25  and  _27
REMARK    9  A    between atoms: _27  and  _28
REMARK   10  A    between atoms: _27  and  _30
REMARK   11  A    between atoms: _30  and  _31
REMARK   12  A    between atoms: _36  and  _37
REMARK   13  A    between atoms: _39  and  _41
REMARK   14  A    between atoms: _41  and  _42
REMARK   15  A    between atoms: _41  and  _44
REMARK   16  A    between atoms: _44  and  _45
REMARK   17  A    between atoms: _47  and  _49
REMARK   18  A    between atoms: _49  and  _50
REMARK   19  A    between atoms: _49  and  _52
REMARK   20  A    between atoms: _55  and  _57
REMARK   21  A    between atoms: _57  and  _58
REMARK   22  A    between atoms: _57  and  _60
REMARK   23  A    between atoms: _62  and  _64
REMARK   24  A    between atoms: _64  and  _65
REMARK   25  A    between atoms: _68  and  _70
REMARK   26  A    between atoms: _70  and  _71
REMARK   27  A    between atoms: _70  and  _73
REMARK   28  A    between atoms: _76  and  _78
REMARK   29  A    between atoms: _78  and  _79
REMARK   30  A    between atoms: _82  and  _84
REMARK   31  A    between atoms: _84  and  _85
REMARK   32  A    between atoms: _84  and  _87
REMARK   33  A    between atoms: _90  and  _92
REMARK   34  A    between atoms: _92  and  _93
REMARK   35  A    between atoms: _92  and  _95
REMARK   36  A    between atoms: _95  and  _96
REMARK   37  A    between atoms: _96  and  _97
REMARK   38  A    between atoms: _97  and  _98
REMARK   39  A    between atoms: _98  and  _99
REMARK   40  A    between atoms: _103  and  _105
REMARK   41  A    between atoms: _105  and  _106
REMARK   42  A    between atoms: _105  and  _108
REMARK   43  A    between atoms: _108  and  _109
REMARK   44  A    between atoms: _109  and  _110
REMARK   45  A    between atoms: _110  and  _111
REMARK   46  A    between atoms: _111  and  _112
REMARK   47  A    between atoms: _116  and  _118
REMARK   48  A    between atoms: _118  and  _119
REMARK   49  A    between atoms: _118  and  _121
REMARK   50  A    between atoms: _121  and  _122
REMARK   51  A    between atoms: _125  and  _127
REMARK   52  A    between atoms: _127  and  _128
REMARK   53  A    between atoms: _127  and  _130
REMARK   54  A    between atoms: _130  and  _131
REMARK   55  A    between atoms: _131  and  _132
REMARK   56  A    between atoms: _132  and  _133
REMARK   57  A    between atoms: _133  and  _134
REMARK   58  A    between atoms: _138  and  _140
REMARK   59  A    between atoms: _140  and  _141
REMARK   60  A    between atoms: _140  and  _143
REMARK   61  A    between atoms: _143  and  _144
REMARK   62  A    between atoms: _144  and  _145
REMARK   63  A    between atoms: _145  and  _146
REMARK   64  A    between atoms: _155  and  _157
REMARK   65  A    between atoms: _157  and  _158
REMARK   66  A    between atoms: _157  and  _160
REMARK   67  A    between atoms: _160  and  _161
REMARK   68  A    between atoms: _164  and  _166
REMARK   69  A    between atoms: _166  and  _167
REMARK   70  A    between atoms: _166  and  _169
REMARK   71  A    between atoms: _169  and  _170
REMARK   72  A    between atoms: _175  and  _176
REMARK   73  A    between atoms: _178  and  _180
REMARK   74  A    between atoms: _180  and  _181
REMARK   75  A    between atoms: _180  and  _183
REMARK   76  A    between atoms: _183  and  _184
REMARK   77  A    between atoms: _184  and  _185
REMARK   78  A    between atoms: _185  and  _186
REMARK   79  A    between atoms: _195  and  _197
REMARK   80  A    between atoms: _197  and  _198
REMARK   81  A    between atoms: _197  and  _200
REMARK   82  A    between atoms: _200  and  _201
REMARK   83  A    between atoms: _201  and  _202
REMARK   84  A    between atoms: _205  and  _207
REMARK   85  A    between atoms: _207  and  _208
REMARK   86  A    between atoms: _207  and  _210
REMARK   87  A    between atoms: _210  and  _211
REMARK   88  A    between atoms: _214  and  _216
REMARK   89  A    between atoms: _216  and  _217
REMARK   90  A    between atoms: _216  and  _219
REMARK   91  A    between atoms: _219  and  _220
REMARK   92  A    between atoms: _220  and  _221
REMARK   93  A    between atoms: _221  and  _222
REMARK   94  A    between atoms: _231  and  _233
REMARK   95  A    between atoms: _233  and  _234
REMARK   96  A    between atoms: _233  and  _236
REMARK   97  A    between atoms: _236  and  _237
REMARK   98  A    between atoms: _240  and  _242
REMARK   99  A    between atoms: _242  and  _243
REMARK  100  A    between atoms: _242  and  _245
REMARK  101  A    between atoms: _245  and  _246
REMARK  102  A    between atoms: _249  and  _251
REMARK  103  A    between atoms: _251  and  _252
REMARK  104  A    between atoms: _251  and  _254
REMARK  105  A    between atoms: _254  and  _255
REMARK  106  A    between atoms: _260  and  _262
REMARK  107  A    between atoms: _262  and  _263
REMARK  108  A    between atoms: _262  and  _265
REMARK  109  A    between atoms: _265  and  _266
REMARK  110  A    between atoms: _266  and  _267
REMARK  111  A    between atoms: _269  and  _271
REMARK  112  A    between atoms: _271  and  _272
REMARK  113  A    between atoms: _271  and  _274
REMARK  114  A    between atoms: _274  and  _275
REMARK  115  A    between atoms: _280  and  _282
REMARK  116  A    between atoms: _282  and  _283
REMARK  117  A    between atoms: _282  and  _285
REMARK  118  A    between atoms: _288  and  _290
REMARK  119  A    between atoms: _290  and  _291
REMARK  120  A    between atoms: _290  and  _293
REMARK  121  A    between atoms: _293  and  _294
REMARK  122  A    between atoms: _297  and  _299
REMARK  123  A    between atoms: _299  and  _300
REMARK  124  A    between atoms: _302  and  _304
REMARK  125  A    between atoms: _304  and  _305
REMARK  126  A    between atoms: _304  and  _307
REMARK  127  A    between atoms: _307  and  _308
REMARK  128  A    between atoms: _311  and  _313
REMARK  129  A    between atoms: _313  and  _314
REMARK  130  A    between atoms: _313  and  _316
REMARK  131  A    between atoms: _316  and  _317
REMARK  132  A    between atoms: _320  and  _322
REMARK  133  A    between atoms: _322  and  _323
REMARK  134  A    between atoms: _322  and  _325
REMARK  135  A    between atoms: _325  and  _326
REMARK  136  A    between atoms: _329  and  _331
REMARK  137  A    between atoms: _331  and  _332
REMARK  138  A    between atoms: _331  and  _334
REMARK  139  A    between atoms: _334  and  _335
REMARK  140  A    between atoms: _340  and  _341
REMARK  141  A    between atoms: _343  and  _345
REMARK  142  A    between atoms: _345  and  _346
REMARK  143  A    between atoms: _345  and  _348
REMARK  144  A    between atoms: _348  and  _349
REMARK  145  A    between atoms: _352  and  _354
REMARK  146  A    between atoms: _354  and  _355
REMARK  147  A    between atoms: _354  and  _357
REMARK  148  A    between atoms: _360  and  _362
REMARK  149  A    between atoms: _362  and  _363
REMARK  150  A    between atoms: _362  and  _365
REMARK  151  A    between atoms: _365  and  _366
REMARK  152  A    between atoms: _369  and  _371
REMARK  153  A    between atoms: _371  and  _372
REMARK  154  A    between atoms: _371  and  _374
REMARK  155  A    between atoms: _374  and  _375
REMARK  156  A    between atoms: _380  and  _382
REMARK  157  A    between atoms: _382  and  _383
REMARK  158  A    between atoms: _382  and  _385
REMARK  159  A    between atoms: _385  and  _386
REMARK  160  A    between atoms: _389  and  _391
REMARK  161  A    between atoms: _391  and  _392
REMARK  162  A    between atoms: _391  and  _394
REMARK  163  A    between atoms: _394  and  _395
REMARK  164  A    between atoms: _395  and  _396
REMARK  165  A    between atoms: _398  and  _400
REMARK  166  A    between atoms: _400  and  _401
REMARK  167  A    between atoms: _403  and  _405
REMARK  168  A    between atoms: _405  and  _406
REMARK  169  A    between atoms: _405  and  _408
REMARK  170  A    between atoms: _408  and  _409
REMARK  171  A    between atoms: _412  and  _414
REMARK  172  A    between atoms: _414  and  _415
REMARK  173  A    between atoms: _414  and  _417
REMARK  174  A    between atoms: _417  and  _418
REMARK  175  A    between atoms: _423  and  _424
REMARK  176  A    between atoms: _426  and  _428
REMARK  177  A    between atoms: _428  and  _429
REMARK  178  A    between atoms: _428  and  _431
REMARK  179  A    between atoms: _431  and  _432
REMARK  180  A    between atoms: _435  and  _437
REMARK  181  A    between atoms: _437  and  _438
REMARK  182  A    between atoms: _437  and  _440
REMARK  183  A    between atoms: _440  and  _441
REMARK  184  A    between atoms: _444  and  _446
REMARK  185  A    between atoms: _446  and  _447
REMARK  186  A    between atoms: _446  and  _449
REMARK  187  A    between atoms: _449  and  _450
REMARK  188  A    between atoms: _453  and  _455
REMARK  189  A    between atoms: _455  and  _456
REMARK  190  A    between atoms: _455  and  _458
REMARK  191  A    between atoms: _458  and  _459
REMARK  192  A    between atoms: _464  and  _466
REMARK  193  A    between atoms: _466  and  _467
REMARK  194  A    between atoms: _466  and  _469
REMARK  195  A    between atoms: _469  and  _470
REMARK  196  A    between atoms: _470  and  _471
REMARK  197  A    between atoms: _471  and  _472
REMARK  198  A    between atoms: _481  and  _483
REMARK  199  A    between atoms: _483  and  _484
REMARK  200  A    between atoms: _483  and  _486
REMARK  201  A    between atoms: _486  and  _487
REMARK  202  A    between atoms: _490  and  _492
REMARK  203  A    between atoms: _492  and  _493
REMARK  204  A    between atoms: _492  and  _495
REMARK  205  A    between atoms: _495  and  _496
REMARK  206  A    between atoms: _499  and  _501
REMARK  207  A    between atoms: _501  and  _502
REMARK  208  A    between atoms: _501  and  _504
REMARK  209  A    between atoms: _504  and  _505
REMARK  210  A    between atoms: _507  and  _509
REMARK  211  A    between atoms: _509  and  _510
REMARK  212  A    between atoms: _509  and  _512
REMARK  213  A    between atoms: _512  and  _513
REMARK  214  A    between atoms: _518  and  _520
REMARK  215  A    between atoms: _520  and  _521
REMARK  216  A    between atoms: _524  and  _526
REMARK  217  A    between atoms: _526  and  _527
REMARK  218  A    between atoms: _526  and  _529
REMARK  219  A    between atoms: _529  and  _530
REMARK  220  A    between atoms: _530  and  _531
REMARK  221  A    between atoms: _531  and  _532
REMARK  222  A    between atoms: _532  and  _533
REMARK  223  A    between atoms: _537  and  _539
REMARK  224  A    between atoms: _539  and  _540
REMARK  225  A    between atoms: _539  and  _542
REMARK  226  A    between atoms: _542  and  _543
REMARK  227  A    between atoms: _546  and  _548
REMARK  228  A    between atoms: _548  and  _549
REMARK  229  A    between atoms: _548  and  _551
REMARK  230  A    between atoms: _551  and  _552
REMARK  231  A    between atoms: _555  and  _557
REMARK  232  A    between atoms: _557  and  _558
REMARK  233  A    between atoms: _557  and  _560
REMARK  234  A    between atoms: _560  and  _561
REMARK  235  A    between atoms: _564  and  _566
REMARK  236  A    between atoms: _566  and  _567
REMARK  237  A    between atoms: _566  and  _569
REMARK  238  A    between atoms: _569  and  _570
REMARK  239  A    between atoms: _576  and  _578
REMARK  240  A    between atoms: _578  and  _579
REMARK  241  A    between atoms: _581  and  _583
REMARK  242  A    between atoms: _583  and  _584
REMARK  243  A    between atoms: _583  and  _586
REMARK  244  A    between atoms: _586  and  _587
REMARK  245  A    between atoms: _590  and  _592
REMARK  246  A    between atoms: _592  and  _593
REMARK  247  A    between atoms: _596  and  _598
REMARK  248  A    between atoms: _598  and  _599
REMARK  249  A    between atoms: _598  and  _601
REMARK  250  A    between atoms: _601  and  _602
REMARK  251  A    between atoms: _607  and  _609
REMARK  252  A    between atoms: _609  and  _610
REMARK  253  A    between atoms: _609  and  _612
REMARK  254  A    between atoms: _612  and  _613
REMARK                            x       y       z     vdW  Elec       q    Type
REMARK                         _______ _______ _______ _____ _____    ______ ____
ROOT
ATOM      1  O   HOH     1      16.363   5.368  34.360  0.00  0.00    +0.000 OA
ENDROOT
TORSDOF 0
REMARK  Name = ../refined-set-2016/2baj/2baj_pocket.pdb
REMARK  254 active torsions:
REMARK  status: ('A' for Active; 'I' for Inactive)
REMARK    1  A    between atoms: _1  and  _3
REMARK    2  A    between atoms: _3  and  _4
REMARK    3  A    between atoms: _3  and  _6
REMARK    4  A    between atoms: _6  and  _7
REMARK    5  A    between atoms: _17  and  _19
REMARK    6  A    between atoms: _19  and  _20
REMARK    7  A    between atoms: _19  and  _22
REMARK    8  A    between atoms: _25  and  _27
REMARK    9  A    between atoms: _27  and  _28
REMARK   10  A    between atoms: _27  and  _30
REMARK   11  A    between atoms: _30  and  _31
REMARK   12  A    between atoms: _36  and  _37
REMARK   13  A    between atoms: _39  and  _41
REMARK   14  A    between atoms: _41  and  _42
REMARK   15  A    between atoms: _41  and  _44
REMARK   16  A    between atoms: _44  and  _45
REMARK   17  A    between atoms: _47  and  _49
REMARK   18  A    between atoms: _49  and  _50
REMARK   19  A    between atoms: _49  and  _52
REMARK   20  A    between atoms: _55  and  _57
REMARK   21  A    between atoms: _57  and  _58
REMARK   22  A    between atoms: _57  and  _60
REMARK   23  A    between atoms: _62  and  _64
REMARK   24  A    between atoms: _64  and  _65
REMARK   25  A    between atoms: _68  and  _70
REMARK   26  A    between atoms: _70  and  _71
REMARK   27  A    between atoms: _70  and  _73
REMARK   28  A    between atoms: _76  and  _78
REMARK   29  A    between atoms: _78  and  _79
REMARK   30  A    between atoms: _82  and  _84
REMARK   31  A    between atoms: _84  and  _85
REMARK   32  A    between atoms: _84  and  _87
REMARK   33  A    between atoms: _90  and  _92
REMARK   34  A    between atoms: _92  and  _93
REMARK   35  A    between atoms: _92  and  _95
REMARK   36  A    between atoms: _95  and  _96
REMARK   37  A    between atoms: _96  and  _97
REMARK   38  A    between atoms: _97  and  _98
REMARK   39  A    between atoms: _98  and  _99
REMARK   40  A    between atoms: _103  and  _105
REMARK   41  A    between atoms: _105  and  _106
REMARK   42  A    between atoms: _105  and  _108
REMARK   43  A    between atoms: _108  and  _109
REMARK   44  A    between atoms: _109  and  _110
REMARK   45  A    between atoms: _110  and  _111
REMARK   46  A    between atoms: _111  and  _112
REMARK   47  A    between atoms: _116  and  _118
REMARK   48  A    between atoms: _118  and  _119
REMARK   49  A    between atoms: _118  and  _121
REMARK   50  A    between atoms: _121  and  _122
REMARK   51  A    between atoms: _125  and  _127
REMARK   52  A    between atoms: _127  and  _128
REMARK   53  A    between atoms: _127  and  _130
REMARK   54  A    between atoms: _130  and  _131
REMARK   55  A    between atoms: _131  and  _132
REMARK   56  A    between atoms: _132  and  _133
REMARK   57  A    between atoms: _133  and  _134
REMARK   58  A    between atoms: _138  and  _140
REMARK   59  A    between atoms: _140  and  _141
REMARK   60  A    between atoms: _140  and  _143
REMARK   61  A    between atoms: _143  and  _144
REMARK   62  A    between atoms: _144  and  _145
REMARK   63  A    between atoms: _145  and  _146
REMARK   64  A    between atoms: _155  and  _157
REMARK   65  A    between atoms: _157  and  _158
REMARK   66  A    between atoms: _157  and  _160
REMARK   67  A    between atoms: _160  and  _161
REMARK   68  A    between atoms: _164  and  _166
REMARK   69  A    between atoms: _166  and  _167
REMARK   70  A    between atoms: _166  and  _169
REMARK   71  A    between atoms: _169  and  _170
REMARK   72  A    between atoms: _175  and  _176
REMARK   73  A    between atoms: _178  and  _180
REMARK   74  A    between atoms: _180  and  _181
REMARK   75  A    between atoms: _180  and  _183
REMARK   76  A    between atoms: _183  and  _184
REMARK   77  A    between atoms: _184  and  _185
REMARK   78  A    between atoms: _185  and  _186
REMARK   79  A    between atoms: _195  and  _197
REMARK   80  A    between atoms: _197  and  _198
REMARK   81  A    between atoms: _197  and  _200
REMARK   82  A    between atoms: _200  and  _201
REMARK   83  A    between atoms: _201  and  _202
REMARK   84  A    between atoms: _205  and  _207
REMARK   85  A    between atoms: _207  and  _208
REMARK   86  A    between atoms: _207  and  _210
REMARK   87  A    between atoms: _210  and  _211
REMARK   88  A    between atoms: _214  and  _216
REMARK   89  A    between atoms: _216  and  _217
REMARK   90  A    between atoms: _216  and  _219
REMARK   91  A    between atoms: _219  and  _220
REMARK   92  A    between atoms: _220  and  _221
REMARK   93  A    between atoms: _221  and  _222
REMARK   94  A    between atoms: _231  and  _233
REMARK   95  A    between atoms: _233  and  _234
REMARK   96  A    between atoms: _233  and  _236
REMARK   97  A    between atoms: _236  and  _237
REMARK   98  A    between atoms: _240  and  _242
REMARK   99  A    between atoms: _242  and  _243
REMARK  100  A    between atoms: _242  and  _245
REMARK  101  A    between atoms: _245  and  _246
REMARK  102  A    between atoms: _249  and  _251
REMARK  103  A    between atoms: _251  and  _252
REMARK  104  A    between atoms: _251  and  _254
REMARK  105  A    between atoms: _254  and  _255
REMARK  106  A    between atoms: _260  and  _262
REMARK  107  A    between atoms: _262  and  _263
REMARK  108  A    between atoms: _262  and  _265
REMARK  109  A    between atoms: _265  and  _266
REMARK  110  A    between atoms: _266  and  _267
REMARK  111  A    between atoms: _269  and  _271
REMARK  112  A    between atoms: _271  and  _272
REMARK  113  A    between atoms: _271  and  _274
REMARK  114  A    between atoms: _274  and  _275
REMARK  115  A    between atoms: _280  and  _282
REMARK  116  A    between atoms: _282  and  _283
REMARK  117  A    between atoms: _282  and  _285
REMARK  118  A    between atoms: _288  and  _290
REMARK  119  A    between atoms: _290  and  _291
REMARK  120  A    between atoms: _290  and  _293
REMARK  121  A    between atoms: _293  and  _294
REMARK  122  A    between atoms: _297  and  _299
REMARK  123  A    between atoms: _299  and  _300
REMARK  124  A    between atoms: _302  and  _304
REMARK  125  A    between atoms: _304  and  _305
REMARK  126  A    between atoms: _304  and  _307
REMARK  127  A    between atoms: _307  and  _308
REMARK  128  A    between atoms: _311  and  _313
REMARK  129  A    between atoms: _313  and  _314
REMARK  130  A    between atoms: _313  and  _316
REMARK  131  A    between atoms: _316  and  _317
REMARK  132  A    between atoms: _320  and  _322
REMARK  133  A    between atoms: _322  and  _323
REMARK  134  A    between atoms: _322  and  _325
REMARK  135  A    between atoms: _325  and  _326
REMARK  136  A    between atoms: _329  and  _331
REMARK  137  A    between atoms: _331  and  _332
REMARK  138  A    between atoms: _331  and  _334
REMARK  139  A    between atoms: _334  and  _335
REMARK  140  A    between atoms: _340  and  _341
REMARK  141  A    between atoms: _343  and  _345
REMARK  142  A    between atoms: _345  and  _346
REMARK  143  A    between atoms: _345  and  _348
REMARK  144  A    between atoms: _348  and  _349
REMARK  145  A    between atoms: _352  and  _354
REMARK  146  A    between atoms: _354  and  _355
REMARK  147  A    between atoms: _354  and  _357
REMARK  148  A    between atoms: _360  and  _362
REMARK  149  A    between atoms: _362  and  _363
REMARK  150  A    between atoms: _362  and  _365
REMARK  151  A    between atoms: _365  and  _366
REMARK  152  A    between atoms: _369  and  _371
REMARK  153  A    between atoms: _371  and  _372
REMARK  154  A    between atoms: _371  and  _374
REMARK  155  A    between atoms: _374  and  _375
REMARK  156  A    between atoms: _380  and  _382
REMARK  157  A    between atoms: _382  and  _383
REMARK  158  A    between atoms: _382  and  _385
REMARK  159  A    between atoms: _385  and  _386
REMARK  160  A    between atoms: _389  and  _391
REMARK  161  A    between atoms: _391  and  _392
REMARK  162  A    between atoms: _391  and  _394
REMARK  163  A    between atoms: _394  and  _395
REMARK  164  A    between atoms: _395  and  _396
REMARK  165  A    between atoms: _398  and  _400
REMARK  166  A    between atoms: _400  and  _401
REMARK  167  A    between atoms: _403  and  _405
REMARK  168  A    between atoms: _405  and  _406
REMARK  169  A    between atoms: _405  and  _408
REMARK  170  A    between atoms: _408  and  _409
REMARK  171  A    between atoms: _412  and  _414
REMARK  172  A    between atoms: _414  and  _415
REMARK  173  A    between atoms: _414  and  _417
REMARK  174  A    between atoms: _417  and  _418
REMARK  175  A    between atoms: _423  and  _424
REMARK  176  A    between atoms: _426  and  _428
REMARK  177  A    between atoms: _428  and  _429
REMARK  178  A    between atoms: _428  and  _431
REMARK  179  A    between atoms: _431  and  _432
REMARK  180  A    between atoms: _435  and  _437
REMARK  181  A    between atoms: _437  and  _438
REMARK  182  A    between atoms: _437  and  _440
REMARK  183  A    between atoms: _440  and  _441
REMARK  184  A    between atoms: _444  and  _446
REMARK  185  A    between atoms: _446  and  _447
REMARK  186  A    between atoms: _446  and  _449
REMARK  187  A    between atoms: _449  and  _450
REMARK  188  A    between atoms: _453  and  _455
REMARK  189  A    between atoms: _455  and  _456
REMARK  190  A    between atoms: _455  and  _458
REMARK  191  A    between atoms: _458  and  _459
REMARK  192  A    between atoms: _464  and  _466
REMARK  193  A    between atoms: _466  and  _467
REMARK  194  A    between atoms: _466  and  _469
REMARK  195  A    between atoms: _469  and  _470
REMARK  196  A    between atoms: _470  and  _471
REMARK  197  A    between atoms: _471  and  _472
REMARK  198  A    between atoms: _481  and  _483
REMARK  199  A    between atoms: _483  and  _484
REMARK  200  A    between atoms: _483  and  _486
REMARK  201  A    between atoms: _486  and  _487
REMARK  202  A    between atoms: _490  and  _492
REMARK  203  A    between atoms: _492  and  _493
REMARK  204  A    between atoms: _492  and  _495
REMARK  205  A    between atoms: _495  and  _496
REMARK  206  A    between atoms: _499  and  _501
REMARK  207  A    between atoms: _501  and  _502
REMARK  208  A    between atoms: _501  and  _504
REMARK  209  A    between atoms: _504  and  _505
REMARK  210  A    between atoms: _507  and  _509
REMARK  211  A    between atoms: _509  and  _510
REMARK  212  A    between atoms: _509  and  _512
REMARK  213  A    between atoms: _512  and  _513
REMARK  214  A    between atoms: _518  and  _520
REMARK  215  A    between atoms: _520  and  _521
REMARK  216  A    between atoms: _524  and  _526
REMARK  217  A    between atoms: _526  and  _527
REMARK  218  A    between atoms: _526  and  _529
REMARK  219  A    between atoms: _529  and  _530
REMARK  220  A    between atoms: _530  and  _531
REMARK  221  A    between atoms: _531  and  _532
REMARK  222  A    between atoms: _532  and  _533
REMARK  223  A    between atoms: _537  and  _539
REMARK  224  A    between atoms: _539  and  _540
REMARK  225  A    between atoms: _539  and  _542
REMARK  226  A    between atoms: _542  and  _543
REMARK  227  A    between atoms: _546  and  _548
REMARK  228  A    between atoms: _548  and  _549
REMARK  229  A    between atoms: _548  and  _551
REMARK  230  A    between atoms: _551  and  _552
REMARK  231  A    between atoms: _555  and  _557
REMARK  232  A    between atoms: _557  and  _558
REMARK  233  A    between atoms: _557  and  _560
REMARK  234  A    between atoms: _560  and  _561
REMARK  235  A    between atoms: _564  and  _566
REMARK  236  A    between atoms: _566  and  _567
REMARK  237  A    between atoms: _566  and  _569
REMARK  238  A    between atoms: _569  and  _570
REMARK  239  A    between atoms: _576  and  _578
REMARK  240  A    between atoms: _578  and  _579
REMARK  241  A    between atoms: _581  and  _583
REMARK  242  A    between atoms: _583  and  _584
REMARK  243  A    between atoms: _583  and  _586
REMARK  244  A    between atoms: _586  and  _587
REMARK  245  A    between atoms: _590  and  _592
REMARK  246  A    between atoms: _592  and  _593
REMARK  247  A    between atoms: _596  and  _598
REMARK  248  A    between atoms: _598  and  _599
REMARK  249  A    between atoms: _598  and  _601
REMARK  250  A    between atoms: _601  and  _602
REMARK  251  A    between atoms: _607  and  _609
REMARK  252  A    between atoms: _609  and  _610
REMARK  253  A    between atoms: _609  and  _612
REMARK  254  A    between atoms: _612  and  _613
REMARK                            x       y       z     vdW  Elec       q    Type
REMARK                         _______ _______ _______ _____ _____    ______ ____
ROOT
ATOM      1  O   HOH     1       1.705   2.385  33.728  0.00  0.00    +0.000 OA
ENDROOT
TORSDOF 0
REMARK  Name = ../refined-set-2016/2baj/2baj_pocket.pdb
REMARK  254 active torsions:
REMARK  status: ('A' for Active; 'I' for Inactive)
REMARK    1  A    between atoms: _1  and  _3
REMARK    2  A    between atoms: _3  and  _4
REMARK    3  A    between atoms: _3  and  _6
REMARK    4  A    between atoms: _6  and  _7
REMARK    5  A    between atoms: _17  and  _19
REMARK    6  A    between atoms: _19  and  _20
REMARK    7  A    between atoms: _19  and  _22
REMARK    8  A    between atoms: _25  and  _27
REMARK    9  A    between atoms: _27  and  _28
REMARK   10  A    between atoms: _27  and  _30
REMARK   11  A    between atoms: _30  and  _31
REMARK   12  A    between atoms: _36  and  _37
REMARK   13  A    between atoms: _39  and  _41
REMARK   14  A    between atoms: _41  and  _42
REMARK   15  A    between atoms: _41  and  _44
REMARK   16  A    between atoms: _44  and  _45
REMARK   17  A    between atoms: _47  and  _49
REMARK   18  A    between atoms: _49  and  _50
REMARK   19  A    between atoms: _49  and  _52
REMARK   20  A    between atoms: _55  and  _57
REMARK   21  A    between atoms: _57  and  _58
REMARK   22  A    between atoms: _57  and  _60
REMARK   23  A    between atoms: _62  and  _64
REMARK   24  A    between atoms: _64  and  _65
REMARK   25  A    between atoms: _68  and  _70
REMARK   26  A    between atoms: _70  and  _71
REMARK   27  A    between atoms: _70  and  _73
REMARK   28  A    between atoms: _76  and  _78
REMARK   29  A    between atoms: _78  and  _79
REMARK   30  A    between atoms: _82  and  _84
REMARK   31  A    between atoms: _84  and  _85
REMARK   32  A    between atoms: _84  and  _87
REMARK   33  A    between atoms: _90  and  _92
REMARK   34  A    between atoms: _92  and  _93
REMARK   35  A    between atoms: _92  and  _95
REMARK   36  A    between atoms: _95  and  _96
REMARK   37  A    between atoms: _96  and  _97
REMARK   38  A    between atoms: _97  and  _98
REMARK   39  A    between atoms: _98  and  _99
REMARK   40  A    between atoms: _103  and  _105
REMARK   41  A    between atoms: _105  and  _106
REMARK   42  A    between atoms: _105  and  _108
REMARK   43  A    between atoms: _108  and  _109
REMARK   44  A    between atoms: _109  and  _110
REMARK   45  A    between atoms: _110  and  _111
REMARK   46  A    between atoms: _111  and  _112
REMARK   47  A    between atoms: _116  and  _118
REMARK   48  A    between atoms: _118  and  _119
REMARK   49  A    between atoms: _118  and  _121
REMARK   50  A    between atoms: _121  and  _122
REMARK   51  A    between atoms: _125  and  _127
REMARK   52  A    between atoms: _127  and  _128
REMARK   53  A    between atoms: _127  and  _130
REMARK   54  A    between atoms: _130  and  _131
REMARK   55  A    between atoms: _131  and  _132
REMARK   56  A    between atoms: _132  and  _133
REMARK   57  A    between atoms: _133  and  _134
REMARK   58  A    between atoms: _138  and  _140
REMARK   59  A    between atoms: _140  and  _141
REMARK   60  A    between atoms: _140  and  _143
REMARK   61  A    between atoms: _143  and  _144
REMARK   62  A    between atoms: _144  and  _145
REMARK   63  A    between atoms: _145  and  _146
REMARK   64  A    between atoms: _155  and  _157
REMARK   65  A    between atoms: _157  and  _158
REMARK   66  A    between atoms: _157  and  _160
REMARK   67  A    between atoms: _160  and  _161
REMARK   68  A    between atoms: _164  and  _166
REMARK   69  A    between atoms: _166  and  _167
REMARK   70  A    between atoms: _166  and  _169
REMARK   71  A    between atoms: _169  and  _170
REMARK   72  A    between atoms: _175  and  _176
REMARK   73  A    between atoms: _178  and  _180
REMARK   74  A    between atoms: _180  and  _181
REMARK   75  A    between atoms: _180  and  _183
REMARK   76  A    between atoms: _183  and  _184
REMARK   77  A    between atoms: _184  and  _185
REMARK   78  A    between atoms: _185  and  _186
REMARK   79  A    between atoms: _195  and  _197
REMARK   80  A    between atoms: _197  and  _198
REMARK   81  A    between atoms: _197  and  _200
REMARK   82  A    between atoms: _200  and  _201
REMARK   83  A    between atoms: _201  and  _202
REMARK   84  A    between atoms: _205  and  _207
REMARK   85  A    between atoms: _207  and  _208
REMARK   86  A    between atoms: _207  and  _210
REMARK   87  A    between atoms: _210  and  _211
REMARK   88  A    between atoms: _214  and  _216
REMARK   89  A    between atoms: _216  and  _217
REMARK   90  A    between atoms: _216  and  _219
REMARK   91  A    between atoms: _219  and  _220
REMARK   92  A    between atoms: _220  and  _221
REMARK   93  A    between atoms: _221  and  _222
REMARK   94  A    between atoms: _231  and  _233
REMARK   95  A    between atoms: _233  and  _234
REMARK   96  A    between atoms: _233  and  _236
REMARK   97  A    between atoms: _236  and  _237
REMARK   98  A    between atoms: _240  and  _242
REMARK   99  A    between atoms: _242  and  _243
REMARK  100  A    between atoms: _242  and  _245
REMARK  101  A    between atoms: _245  and  _246
REMARK  102  A    between atoms: _249  and  _251
REMARK  103  A    between atoms: _251  and  _252
REMARK  104  A    between atoms: _251  and  _254
REMARK  105  A    between atoms: _254  and  _255
REMARK  106  A    between atoms: _260  and  _262
REMARK  107  A    between atoms: _262  and  _263
REMARK  108  A    between atoms: _262  and  _265
REMARK  109  A    between atoms: _265  and  _266
REMARK  110  A    between atoms: _266  and  _267
REMARK  111  A    between atoms: _269  and  _271
REMARK  112  A    between atoms: _271  and  _272
REMARK  113  A    between atoms: _271  and  _274
REMARK  114  A    between atoms: _274  and  _275
REMARK  115  A    between atoms: _280  and  _282
REMARK  116  A    between atoms: _282  and  _283
REMARK  117  A    between atoms: _282  and  _285
REMARK  118  A    between atoms: _288  and  _290
REMARK  119  A    between atoms: _290  and  _291
REMARK  120  A    between atoms: _290  and  _293
REMARK  121  A    between atoms: _293  and  _294
REMARK  122  A    between atoms: _297  and  _299
REMARK  123  A    between atoms: _299  and  _300
REMARK  124  A    between atoms: _302  and  _304
REMARK  125  A    between atoms: _304  and  _305
REMARK  126  A    between atoms: _304  and  _307
REMARK  127  A    between atoms: _307  and  _308
REMARK  128  A    between atoms: _311  and  _313
REMARK  129  A    between atoms: _313  and  _314
REMARK  130  A    between atoms: _313  and  _316
REMARK  131  A    between atoms: _316  and  _317
REMARK  132  A    between atoms: _320  and  _322
REMARK  133  A    between atoms: _322  and  _323
REMARK  134  A    between atoms: _322  and  _325
REMARK  135  A    between atoms: _325  and  _326
REMARK  136  A    between atoms: _329  and  _331
REMARK  137  A    between atoms: _331  and  _332
REMARK  138  A    between atoms: _331  and  _334
REMARK  139  A    between atoms: _334  and  _335
REMARK  140  A    between atoms: _340  and  _341
REMARK  141  A    between atoms: _343  and  _345
REMARK  142  A    between atoms: _345  and  _346
REMARK  143  A    between atoms: _345  and  _348
REMARK  144  A    between atoms: _348  and  _349
REMARK  145  A    between atoms: _352  and  _354
REMARK  146  A    between atoms: _354  and  _355
REMARK  147  A    between atoms: _354  and  _357
REMARK  148  A    between atoms: _360  and  _362
REMARK  149  A    between atoms: _362  and  _363
REMARK  150  A    between atoms: _362  and  _365
REMARK  151  A    between atoms: _365  and  _366
REMARK  152  A    between atoms: _369  and  _371
REMARK  153  A    between atoms: _371  and  _372
REMARK  154  A    between atoms: _371  and  _374
REMARK  155  A    between atoms: _374  and  _375
REMARK  156  A    between atoms: _380  and  _382
REMARK  157  A    between atoms: _382  and  _383
REMARK  158  A    between atoms: _382  and  _385
REMARK  159  A    between atoms: _385  and  _386
REMARK  160  A    between atoms: _389  and  _391
REMARK  161  A    between atoms: _391  and  _392
REMARK  162  A    between atoms: _391  and  _394
REMARK  163  A    between atoms: _394  and  _395
REMARK  164  A    between atoms: _395  and  _396
REMARK  165  A    between atoms: _398  and  _400
REMARK  166  A    between atoms: _400  and  _401
REMARK  167  A    between atoms: _403  and  _405
REMARK  168  A    between atoms: _405  and  _406
REMARK  169  A    between atoms: _405  and  _408
REMARK  170  A    between atoms: _408  and  _409
REMARK  171  A    between atoms: _412  and  _414
REMARK  172  A    between atoms: _414  and  _415
REMARK  173  A    between atoms: _414  and  _417
REMARK  174  A    between atoms: _417  and  _418
REMARK  175  A    between atoms: _423  and  _424
REMARK  176  A    between atoms: _426  and  _428
REMARK  177  A    between atoms: _428  and  _429
REMARK  178  A    between atoms: _428  and  _431
REMARK  179  A    between atoms: _431  and  _432
REMARK  180  A    between atoms: _435  and  _437
REMARK  181  A    between atoms: _437  and  _438
REMARK  182  A    between atoms: _437  and  _440
REMARK  183  A    between atoms: _440  and  _441
REMARK  184  A    between atoms: _444  and  _446
REMARK  185  A    between atoms: _446  and  _447
REMARK  186  A    between atoms: _446  and  _449
REMARK  187  A    between atoms: _449  and  _450
REMARK  188  A    between atoms: _453  and  _455
REMARK  189  A    between atoms: _455  and  _456
REMARK  190  A    between atoms: _455  and  _458
REMARK  191  A    between atoms: _458  and  _459
REMARK  192  A    between atoms: _464  and  _466
REMARK  193  A    between atoms: _466  and  _467
REMARK  194  A    between atoms: _466  and  _469
REMARK  195  A    between atoms: _469  and  _470
REMARK  196  A    between atoms: _470  and  _471
REMARK  197  A    between atoms: _471  and  _472
REMARK  198  A    between atoms: _481  and  _483
REMARK  199  A    between atoms: _483  and  _484
REMARK  200  A    between atoms: _483  and  _486
REMARK  201  A    between atoms: _486  and  _487
REMARK  202  A    between atoms: _490  and  _492
REMARK  203  A    between atoms: _492  and  _493
REMARK  204  A    between atoms: _492  and  _495
REMARK  205  A    between atoms: _495  and  _496
REMARK  206  A    between atoms: _499  and  _501
REMARK  207  A    between atoms: _501  and  _502
REMARK  208  A    between atoms: _501  and  _504
REMARK  209  A    between atoms: _504  and  _505
REMARK  210  A    between atoms: _507  and  _509
REMARK  211  A    between atoms: _509  and  _510
REMARK  212  A    between atoms: _509  and  _512
REMARK  213  A    between atoms: _512  and  _513
REMARK  214  A    between atoms: _518  and  _520
REMARK  215  A    between atoms: _520  and  _521
REMARK  216  A    between atoms: _524  and  _526
REMARK  217  A    between atoms: _526  and  _527
REMARK  218  A    between atoms: _526  and  _529
REMARK  219  A    between atoms: _529  and  _530
REMARK  220  A    between atoms: _530  and  _531
REMARK  221  A    between atoms: _531  and  _532
REMARK  222  A    between atoms: _532  and  _533
REMARK  223  A    between atoms: _537  and  _539
REMARK  224  A    between atoms: _539  and  _540
REMARK  225  A    between atoms: _539  and  _542
REMARK  226  A    between atoms: _542  and  _543
REMARK  227  A    between atoms: _546  and  _548
REMARK  228  A    between atoms: _548  and  _549
REMARK  229  A    between atoms: _548  and  _551
REMARK  230  A    between atoms: _551  and  _552
REMARK  231  A    between atoms: _555  and  _557
REMARK  232  A    between atoms: _557  and  _558
REMARK  233  A    between atoms: _557  and  _560
REMARK  234  A    between atoms: _560  and  _561
REMARK  235  A    between atoms: _564  and  _566
REMARK  236  A    between atoms: _566  and  _567
REMARK  237  A    between atoms: _566  and  _569
REMARK  238  A    between atoms: _569  and  _570
REMARK  239  A    between atoms: _576  and  _578
REMARK  240  A    between atoms: _578  and  _579
REMARK  241  A    between atoms: _581  and  _583
REMARK  242  A    between atoms: _583  and  _584
REMARK  243  A    between atoms: _583  and  _586
REMARK  244  A    between atoms: _586  and  _587
REMARK  245  A    between atoms: _590  and  _592
REMARK  246  A    between atoms: _592  and  _593
REMARK  247  A    between atoms: _596  and  _598
REMARK  248  A    between atoms: _598  and  _599
REMARK  249  A    between atoms: _598  and  _601
REMARK  250  A    between atoms: _601  and  _602
REMARK  251  A    between atoms: _607  and  _609
REMARK  252  A    between atoms: _609  and  _610
REMARK  253  A    between atoms: _609  and  _612
REMARK  254  A    between atoms: _612  and  _613
REMARK                            x       y       z     vdW  Elec       q    Type
REMARK                         _______ _______ _______ _____ _____    ______ ____
ROOT
ATOM      1  O   HOH     1      12.963   4.634  35.624  0.00  0.00    +0.000 OA
ENDROOT
TORSDOF 0
REMARK  Name = ../refined-set-2016/2baj/2baj_pocket.pdb
REMARK  254 active torsions:
REMARK  status: ('A' for Active; 'I' for Inactive)
REMARK    1  A    between atoms: _1  and  _3
REMARK    2  A    between atoms: _3  and  _4
REMARK    3  A    between atoms: _3  and  _6
REMARK    4  A    between atoms: _6  and  _7
REMARK    5  A    between atoms: _17  and  _19
REMARK    6  A    between atoms: _19  and  _20
REMARK    7  A    between atoms: _19  and  _22
REMARK    8  A    between atoms: _25  and  _27
REMARK    9  A    between atoms: _27  and  _28
REMARK   10  A    between atoms: _27  and  _30
REMARK   11  A    between atoms: _30  and  _31
REMARK   12  A    between atoms: _36  and  _37
REMARK   13  A    between atoms: _39  and  _41
REMARK   14  A    between atoms: _41  and  _42
REMARK   15  A    between atoms: _41  and  _44
REMARK   16  A    between atoms: _44  and  _45
REMARK   17  A    between atoms: _47  and  _49
REMARK   18  A    between atoms: _49  and  _50
REMARK   19  A    between atoms: _49  and  _52
REMARK   20  A    between atoms: _55  and  _57
REMARK   21  A    between atoms: _57  and  _58
REMARK   22  A    between atoms: _57  and  _60
REMARK   23  A    between atoms: _62  and  _64
REMARK   24  A    between atoms: _64  and  _65
REMARK   25  A    between atoms: _68  and  _70
REMARK   26  A    between atoms: _70  and  _71
REMARK   27  A    between atoms: _70  and  _73
REMARK   28  A    between atoms: _76  and  _78
REMARK   29  A    between atoms: _78  and  _79
REMARK   30  A    between atoms: _82  and  _84
REMARK   31  A    between atoms: _84  and  _85
REMARK   32  A    between atoms: _84  and  _87
REMARK   33  A    between atoms: _90  and  _92
REMARK   34  A    between atoms: _92  and  _93
REMARK   35  A    between atoms: _92  and  _95
REMARK   36  A    between atoms: _95  and  _96
REMARK   37  A    between atoms: _96  and  _97
REMARK   38  A    between atoms: _97  and  _98
REMARK   39  A    between atoms: _98  and  _99
REMARK   40  A    between atoms: _103  and  _105
REMARK   41  A    between atoms: _105  and  _106
REMARK   42  A    between atoms: _105  and  _108
REMARK   43  A    between atoms: _108  and  _109
REMARK   44  A    between atoms: _109  and  _110
REMARK   45  A    between atoms: _110  and  _111
REMARK   46  A    between atoms: _111  and  _112
REMARK   47  A    between atoms: _116  and  _118
REMARK   48  A    between atoms: _118  and  _119
REMARK   49  A    between atoms: _118  and  _121
REMARK   50  A    between atoms: _121  and  _122
REMARK   51  A    between atoms: _125  and  _127
REMARK   52  A    between atoms: _127  and  _128
REMARK   53  A    between atoms: _127  and  _130
REMARK   54  A    between atoms: _130  and  _131
REMARK   55  A    between atoms: _131  and  _132
REMARK   56  A    between atoms: _132  and  _133
REMARK   57  A    between atoms: _133  and  _134
REMARK   58  A    between atoms: _138  and  _140
REMARK   59  A    between atoms: _140  and  _141
REMARK   60  A    between atoms: _140  and  _143
REMARK   61  A    between atoms: _143  and  _144
REMARK   62  A    between atoms: _144  and  _145
REMARK   63  A    between atoms: _145  and  _146
REMARK   64  A    between atoms: _155  and  _157
REMARK   65  A    between atoms: _157  and  _158
REMARK   66  A    between atoms: _157  and  _160
REMARK   67  A    between atoms: _160  and  _161
REMARK   68  A    between atoms: _164  and  _166
REMARK   69  A    between atoms: _166  and  _167
REMARK   70  A    between atoms: _166  and  _169
REMARK   71  A    between atoms: _169  and  _170
REMARK   72  A    between atoms: _175  and  _176
REMARK   73  A    between atoms: _178  and  _180
REMARK   74  A    between atoms: _180  and  _181
REMARK   75  A    between atoms: _180  and  _183
REMARK   76  A    between atoms: _183  and  _184
REMARK   77  A    between atoms: _184  and  _185
REMARK   78  A    between atoms: _185  and  _186
REMARK   79  A    between atoms: _195  and  _197
REMARK   80  A    between atoms: _197  and  _198
REMARK   81  A    between atoms: _197  and  _200
REMARK   82  A    between atoms: _200  and  _201
REMARK   83  A    between atoms: _201  and  _202
REMARK   84  A    between atoms: _205  and  _207
REMARK   85  A    between atoms: _207  and  _208
REMARK   86  A    between atoms: _207  and  _210
REMARK   87  A    between atoms: _210  and  _211
REMARK   88  A    between atoms: _214  and  _216
REMARK   89  A    between atoms: _216  and  _217
REMARK   90  A    between atoms: _216  and  _219
REMARK   91  A    between atoms: _219  and  _220
REMARK   92  A    between atoms: _220  and  _221
REMARK   93  A    between atoms: _221  and  _222
REMARK   94  A    between atoms: _231  and  _233
REMARK   95  A    between atoms: _233  and  _234
REMARK   96  A    between atoms: _233  and  _236
REMARK   97  A    between atoms: _236  and  _237
REMARK   98  A    between atoms: _240  and  _242
REMARK   99  A    between atoms: _242  and  _243
REMARK  100  A    between atoms: _242  and  _245
REMARK  101  A    between atoms: _245  and  _246
REMARK  102  A    between atoms: _249  and  _251
REMARK  103  A    between atoms: _251  and  _252
REMARK  104  A    between atoms: _251  and  _254
REMARK  105  A    between atoms: _254  and  _255
REMARK  106  A    between atoms: _260  and  _262
REMARK  107  A    between atoms: _262  and  _263
REMARK  108  A    between atoms: _262  and  _265
REMARK  109  A    between atoms: _265  and  _266
REMARK  110  A    between atoms: _266  and  _267
REMARK  111  A    between atoms: _269  and  _271
REMARK  112  A    between atoms: _271  and  _272
REMARK  113  A    between atoms: _271  and  _274
REMARK  114  A    between atoms: _274  and  _275
REMARK  115  A    between atoms: _280  and  _282
REMARK  116  A    between atoms: _282  and  _283
REMARK  117  A    between atoms: _282  and  _285
REMARK  118  A    between atoms: _288  and  _290
REMARK  119  A    between atoms: _290  and  _291
REMARK  120  A    between atoms: _290  and  _293
REMARK  121  A    between atoms: _293  and  _294
REMARK  122  A    between atoms: _297  and  _299
REMARK  123  A    between atoms: _299  and  _300
REMARK  124  A    between atoms: _302  and  _304
REMARK  125  A    between atoms: _304  and  _305
REMARK  126  A    between atoms: _304  and  _307
REMARK  127  A    between atoms: _307  and  _308
REMARK  128  A    between atoms: _311  and  _313
REMARK  129  A    between atoms: _313  and  _314
REMARK  130  A    between atoms: _313  and  _316
REMARK  131  A    between atoms: _316  and  _317
REMARK  132  A    between atoms: _320  and  _322
REMARK  133  A    between atoms: _322  and  _323
REMARK  134  A    between atoms: _322  and  _325
REMARK  135  A    between atoms: _325  and  _326
REMARK  136  A    between atoms: _329  and  _331
REMARK  137  A    between atoms: _331  and  _332
REMARK  138  A    between atoms: _331  and  _334
REMARK  139  A    between atoms: _334  and  _335
REMARK  140  A    between atoms: _340  and  _341
REMARK  141  A    between atoms: _343  and  _345
REMARK  142  A    between atoms: _345  and  _346
REMARK  143  A    between atoms: _345  and  _348
REMARK  144  A    between atoms: _348  and  _349
REMARK  145  A    between atoms: _352  and  _354
REMARK  146  A    between atoms: _354  and  _355
REMARK  147  A    between atoms: _354  and  _357
REMARK  148  A    between atoms: _360  and  _362
REMARK  149  A    between atoms: _362  and  _363
REMARK  150  A    between atoms: _362  and  _365
REMARK  151  A    between atoms: _365  and  _366
REMARK  152  A    between atoms: _369  and  _371
REMARK  153  A    between atoms: _371  and  _372
REMARK  154  A    between atoms: _371  and  _374
REMARK  155  A    between atoms: _374  and  _375
REMARK  156  A    between atoms: _380  and  _382
REMARK  157  A    between atoms: _382  and  _383
REMARK  158  A    between atoms: _382  and  _385
REMARK  159  A    between atoms: _385  and  _386
REMARK  160  A    between atoms: _389  and  _391
REMARK  161  A    between atoms: _391  and  _392
REMARK  162  A    between atoms: _391  and  _394
REMARK  163  A    between atoms: _394  and  _395
REMARK  164  A    between atoms: _395  and  _396
REMARK  165  A    between atoms: _398  and  _400
REMARK  166  A    between atoms: _400  and  _401
REMARK  167  A    between atoms: _403  and  _405
REMARK  168  A    between atoms: _405  and  _406
REMARK  169  A    between atoms: _405  and  _408
REMARK  170  A    between atoms: _408  and  _409
REMARK  171  A    between atoms: _412  and  _414
REMARK  172  A    between atoms: _414  and  _415
REMARK  173  A    between atoms: _414  and  _417
REMARK  174  A    between atoms: _417  and  _418
REMARK  175  A    between atoms: _423  and  _424
REMARK  176  A    between atoms: _426  and  _428
REMARK  177  A    between atoms: _428  and  _429
REMARK  178  A    between atoms: _428  and  _431
REMARK  179  A    between atoms: _431  and  _432
REMARK  180  A    between atoms: _435  and  _437
REMARK  181  A    between atoms: _437  and  _438
REMARK  182  A    between atoms: _437  and  _440
REMARK  183  A    between atoms: _440  and  _441
REMARK  184  A    between atoms: _444  and  _446
REMARK  185  A    between atoms: _446  and  _447
REMARK  186  A    between atoms: _446  and  _449
REMARK  187  A    between atoms: _449  and  _450
REMARK  188  A    between atoms: _453  and  _455
REMARK  189  A    between atoms: _455  and  _456
REMARK  190  A    between atoms: _455  and  _458
REMARK  191  A    between atoms: _458  and  _459
REMARK  192  A    between atoms: _464  and  _466
REMARK  193  A    between atoms: _466  and  _467
REMARK  194  A    between atoms: _466  and  _469
REMARK  195  A    between atoms: _469  and  _470
REMARK  196  A    between atoms: _470  and  _471
REMARK  197  A    between atoms: _471  and  _472
REMARK  198  A    between atoms: _481  and  _483
REMARK  199  A    between atoms: _483  and  _484
REMARK  200  A    between atoms: _483  and  _486
REMARK  201  A    between atoms: _486  and  _487
REMARK  202  A    between atoms: _490  and  _492
REMARK  203  A    between atoms: _492  and  _493
REMARK  204  A    between atoms: _492  and  _495
REMARK  205  A    between atoms: _495  and  _496
REMARK  206  A    between atoms: _499  and  _501
REMARK  207  A    between atoms: _501  and  _502
REMARK  208  A    between atoms: _501  and  _504
REMARK  209  A    between atoms: _504  and  _505
REMARK  210  A    between atoms: _507  and  _509
REMARK  211  A    between atoms: _509  and  _510
REMARK  212  A    between atoms: _509  and  _512
REMARK  213  A    between atoms: _512  and  _513
REMARK  214  A    between atoms: _518  and  _520
REMARK  215  A    between atoms: _520  and  _521
REMARK  216  A    between atoms: _524  and  _526
REMARK  217  A    between atoms: _526  and  _527
REMARK  218  A    between atoms: _526  and  _529
REMARK  219  A    between atoms: _529  and  _530
REMARK  220  A    between atoms: _530  and  _531
REMARK  221  A    between atoms: _531  and  _532
REMARK  222  A    between atoms: _532  and  _533
REMARK  223  A    between atoms: _537  and  _539
REMARK  224  A    between atoms: _539  and  _540
REMARK  225  A    between atoms: _539  and  _542
REMARK  226  A    between atoms: _542  and  _543
REMARK  227  A    between atoms: _546  and  _548
REMARK  228  A    between atoms: _548  and  _549
REMARK  229  A    between atoms: _548  and  _551
REMARK  230  A    between atoms: _551  and  _552
REMARK  231  A    between atoms: _555  and  _557
REMARK  232  A    between atoms: _557  and  _558
REMARK  233  A    between atoms: _557  and  _560
REMARK  234  A    between atoms: _560  and  _561
REMARK  235  A    between atoms: _564  and  _566
REMARK  236  A    between atoms: _566  and  _567
REMARK  237  A    between atoms: _566  and  _569
REMARK  238  A    between atoms: _569  and  _570
REMARK  239  A    between atoms: _576  and  _578
REMARK  240  A    between atoms: _578  and  _579
REMARK  241  A    between atoms: _581  and  _583
REMARK  242  A    between atoms: _583  and  _584
REMARK  243  A    between atoms: _583  and  _586
REMARK  244  A    between atoms: _586  and  _587
REMARK  245  A    between atoms: _590  and  _592
REMARK  246  A    between atoms: _592  and  _593
REMARK  247  A    between atoms: _596  and  _598
REMARK  248  A    between atoms: _598  and  _599
REMARK  249  A    between atoms: _598  and  _601
REMARK  250  A    between atoms: _601  and  _602
REMARK  251  A    between atoms: _607  and  _609
REMARK  252  A    between atoms: _609  and  _610
REMARK  253  A    between atoms: _609  and  _612
REMARK  254  A    between atoms: _612  and  _613
REMARK                            x       y       z     vdW  Elec       q    Type
REMARK                         _______ _______ _______ _____ _____    ______ ____
ROOT
ATOM      1  O   HOH     1       8.977   3.321  32.955  0.00  0.00    +0.000 OA
ENDROOT
TORSDOF 0
REMARK  Name = ../refined-set-2016/2baj/2baj_pocket.pdb
REMARK  254 active torsions:
REMARK  status: ('A' for Active; 'I' for Inactive)
REMARK    1  A    between atoms: _1  and  _3
REMARK    2  A    between atoms: _3  and  _4
REMARK    3  A    between atoms: _3  and  _6
REMARK    4  A    between atoms: _6  and  _7
REMARK    5  A    between atoms: _17  and  _19
REMARK    6  A    between atoms: _19  and  _20
REMARK    7  A    between atoms: _19  and  _22
REMARK    8  A    between atoms: _25  and  _27
REMARK    9  A    between atoms: _27  and  _28
REMARK   10  A    between atoms: _27  and  _30
REMARK   11  A    between atoms: _30  and  _31
REMARK   12  A    between atoms: _36  and  _37
REMARK   13  A    between atoms: _39  and  _41
REMARK   14  A    between atoms: _41  and  _42
REMARK   15  A    between atoms: _41  and  _44
REMARK   16  A    between atoms: _44  and  _45
REMARK   17  A    between atoms: _47  and  _49
REMARK   18  A    between atoms: _49  and  _50
REMARK   19  A    between atoms: _49  and  _52
REMARK   20  A    between atoms: _55  and  _57
REMARK   21  A    between atoms: _57  and  _58
REMARK   22  A    between atoms: _57  and  _60
REMARK   23  A    between atoms: _62  and  _64
REMARK   24  A    between atoms: _64  and  _65
REMARK   25  A    between atoms: _68  and  _70
REMARK   26  A    between atoms: _70  and  _71
REMARK   27  A    between atoms: _70  and  _73
REMARK   28  A    between atoms: _76  and  _78
REMARK   29  A    between atoms: _78  and  _79
REMARK   30  A    between atoms: _82  and  _84
REMARK   31  A    between atoms: _84  and  _85
REMARK   32  A    between atoms: _84  and  _87
REMARK   33  A    between atoms: _90  and  _92
REMARK   34  A    between atoms: _92  and  _93
REMARK   35  A    between atoms: _92  and  _95
REMARK   36  A    between atoms: _95  and  _96
REMARK   37  A    between atoms: _96  and  _97
REMARK   38  A    between atoms: _97  and  _98
REMARK   39  A    between atoms: _98  and  _99
REMARK   40  A    between atoms: _103  and  _105
REMARK   41  A    between atoms: _105  and  _106
REMARK   42  A    between atoms: _105  and  _108
REMARK   43  A    between atoms: _108  and  _109
REMARK   44  A    between atoms: _109  and  _110
REMARK   45  A    between atoms: _110  and  _111
REMARK   46  A    between atoms: _111  and  _112
REMARK   47  A    between atoms: _116  and  _118
REMARK   48  A    between atoms: _118  and  _119
REMARK   49  A    between atoms: _118  and  _121
REMARK   50  A    between atoms: _121  and  _122
REMARK   51  A    between atoms: _125  and  _127
REMARK   52  A    between atoms: _127  and  _128
REMARK   53  A    between atoms: _127  and  _130
REMARK   54  A    between atoms: _130  and  _131
REMARK   55  A    between atoms: _131  and  _132
REMARK   56  A    between atoms: _132  and  _133
REMARK   57  A    between atoms: _133  and  _134
REMARK   58  A    between atoms: _138  and  _140
REMARK   59  A    between atoms: _140  and  _141
REMARK   60  A    between atoms: _140  and  _143
REMARK   61  A    between atoms: _143  and  _144
REMARK   62  A    between atoms: _144  and  _145
REMARK   63  A    between atoms: _145  and  _146
REMARK   64  A    between atoms: _155  and  _157
REMARK   65  A    between atoms: _157  and  _158
REMARK   66  A    between atoms: _157  and  _160
REMARK   67  A    between atoms: _160  and  _161
REMARK   68  A    between atoms: _164  and  _166
REMARK   69  A    between atoms: _166  and  _167
REMARK   70  A    between atoms: _166  and  _169
REMARK   71  A    between atoms: _169  and  _170
REMARK   72  A    between atoms: _175  and  _176
REMARK   73  A    between atoms: _178  and  _180
REMARK   74  A    between atoms: _180  and  _181
REMARK   75  A    between atoms: _180  and  _183
REMARK   76  A    between atoms: _183  and  _184
REMARK   77  A    between atoms: _184  and  _185
REMARK   78  A    between atoms: _185  and  _186
REMARK   79  A    between atoms: _195  and  _197
REMARK   80  A    between atoms: _197  and  _198
REMARK   81  A    between atoms: _197  and  _200
REMARK   82  A    between atoms: _200  and  _201
REMARK   83  A    between atoms: _201  and  _202
REMARK   84  A    between atoms: _205  and  _207
REMARK   85  A    between atoms: _207  and  _208
REMARK   86  A    between atoms: _207  and  _210
REMARK   87  A    between atoms: _210  and  _211
REMARK   88  A    between atoms: _214  and  _216
REMARK   89  A    between atoms: _216  and  _217
REMARK   90  A    between atoms: _216  and  _219
REMARK   91  A    between atoms: _219  and  _220
REMARK   92  A    between atoms: _220  and  _221
REMARK   93  A    between atoms: _221  and  _222
REMARK   94  A    between atoms: _231  and  _233
REMARK   95  A    between atoms: _233  and  _234
REMARK   96  A    between atoms: _233  and  _236
REMARK   97  A    between atoms: _236  and  _237
REMARK   98  A    between atoms: _240  and  _242
REMARK   99  A    between atoms: _242  and  _243
REMARK  100  A    between atoms: _242  and  _245
REMARK  101  A    between atoms: _245  and  _246
REMARK  102  A    between atoms: _249  and  _251
REMARK  103  A    between atoms: _251  and  _252
REMARK  104  A    between atoms: _251  and  _254
REMARK  105  A    between atoms: _254  and  _255
REMARK  106  A    between atoms: _260  and  _262
REMARK  107  A    between atoms: _262  and  _263
REMARK  108  A    between atoms: _262  and  _265
REMARK  109  A    between atoms: _265  and  _266
REMARK  110  A    between atoms: _266  and  _267
REMARK  111  A    between atoms: _269  and  _271
REMARK  112  A    between atoms: _271  and  _272
REMARK  113  A    between atoms: _271  and  _274
REMARK  114  A    between atoms: _274  and  _275
REMARK  115  A    between atoms: _280  and  _282
REMARK  116  A    between atoms: _282  and  _283
REMARK  117  A    between atoms: _282  and  _285
REMARK  118  A    between atoms: _288  and  _290
REMARK  119  A    between atoms: _290  and  _291
REMARK  120  A    between atoms: _290  and  _293
REMARK  121  A    between atoms: _293  and  _294
REMARK  122  A    between atoms: _297  and  _299
REMARK  123  A    between atoms: _299  and  _300
REMARK  124  A    between atoms: _302  and  _304
REMARK  125  A    between atoms: _304  and  _305
REMARK  126  A    between atoms: _304  and  _307
REMARK  127  A    between atoms: _307  and  _308
REMARK  128  A    between atoms: _311  and  _313
REMARK  129  A    between atoms: _313  and  _314
REMARK  130  A    between atoms: _313  and  _316
REMARK  131  A    between atoms: _316  and  _317
REMARK  132  A    between atoms: _320  and  _322
REMARK  133  A    between atoms: _322  and  _323
REMARK  134  A    between atoms: _322  and  _325
REMARK  135  A    between atoms: _325  and  _326
REMARK  136  A    between atoms: _329  and  _331
REMARK  137  A    between atoms: _331  and  _332
REMARK  138  A    between atoms: _331  and  _334
REMARK  139  A    between atoms: _334  and  _335
REMARK  140  A    between atoms: _340  and  _341
REMARK  141  A    between atoms: _343  and  _345
REMARK  142  A    between atoms: _345  and  _346
REMARK  143  A    between atoms: _345  and  _348
REMARK  144  A    between atoms: _348  and  _349
REMARK  145  A    between atoms: _352  and  _354
REMARK  146  A    between atoms: _354  and  _355
REMARK  147  A    between atoms: _354  and  _357
REMARK  148  A    between atoms: _360  and  _362
REMARK  149  A    between atoms: _362  and  _363
REMARK  150  A    between atoms: _362  and  _365
REMARK  151  A    between atoms: _365  and  _366
REMARK  152  A    between atoms: _369  and  _371
REMARK  153  A    between atoms: _371  and  _372
REMARK  154  A    between atoms: _371  and  _374
REMARK  155  A    between atoms: _374  and  _375
REMARK  156  A    between atoms: _380  and  _382
REMARK  157  A    between atoms: _382  and  _383
REMARK  158  A    between atoms: _382  and  _385
REMARK  159  A    between atoms: _385  and  _386
REMARK  160  A    between atoms: _389  and  _391
REMARK  161  A    between atoms: _391  and  _392
REMARK  162  A    between atoms: _391  and  _394
REMARK  163  A    between atoms: _394  and  _395
REMARK  164  A    between atoms: _395  and  _396
REMARK  165  A    between atoms: _398  and  _400
REMARK  166  A    between atoms: _400  and  _401
REMARK  167  A    between atoms: _403  and  _405
REMARK  168  A    between atoms: _405  and  _406
REMARK  169  A    between atoms: _405  and  _408
REMARK  170  A    between atoms: _408  and  _409
REMARK  171  A    between atoms: _412  and  _414
REMARK  172  A    between atoms: _414  and  _415
REMARK  173  A    between atoms: _414  and  _417
REMARK  174  A    between atoms: _417  and  _418
REMARK  175  A    between atoms: _423  and  _424
REMARK  176  A    between atoms: _426  and  _428
REMARK  177  A    between atoms: _428  and  _429
REMARK  178  A    between atoms: _428  and  _431
REMARK  179  A    between atoms: _431  and  _432
REMARK  180  A    between atoms: _435  and  _437
REMARK  181  A    between atoms: _437  and  _438
REMARK  182  A    between atoms: _437  and  _440
REMARK  183  A    between atoms: _440  and  _441
REMARK  184  A    between atoms: _444  and  _446
REMARK  185  A    between atoms: _446  and  _447
REMARK  186  A    between atoms: _446  and  _449
REMARK  187  A    between atoms: _449  and  _450
REMARK  188  A    between atoms: _453  and  _455
REMARK  189  A    between atoms: _455  and  _456
REMARK  190  A    between atoms: _455  and  _458
REMARK  191  A    between atoms: _458  and  _459
REMARK  192  A    between atoms: _464  and  _466
REMARK  193  A    between atoms: _466  and  _467
REMARK  194  A    between atoms: _466  and  _469
REMARK  195  A    between atoms: _469  and  _470
REMARK  196  A    between atoms: _470  and  _471
REMARK  197  A    between atoms: _471  and  _472
REMARK  198  A    between atoms: _481  and  _483
REMARK  199  A    between atoms: _483  and  _484
REMARK  200  A    between atoms: _483  and  _486
REMARK  201  A    between atoms: _486  and  _487
REMARK  202  A    between atoms: _490  and  _492
REMARK  203  A    between atoms: _492  and  _493
REMARK  204  A    between atoms: _492  and  _495
REMARK  205  A    between atoms: _495  and  _496
REMARK  206  A    between atoms: _499  and  _501
REMARK  207  A    between atoms: _501  and  _502
REMARK  208  A    between atoms: _501  and  _504
REMARK  209  A    between atoms: _504  and  _505
REMARK  210  A    between atoms: _507  and  _509
REMARK  211  A    between atoms: _509  and  _510
REMARK  212  A    between atoms: _509  and  _512
REMARK  213  A    between atoms: _512  and  _513
REMARK  214  A    between atoms: _518  and  _520
REMARK  215  A    between atoms: _520  and  _521
REMARK  216  A    between atoms: _524  and  _526
REMARK  217  A    between atoms: _526  and  _527
REMARK  218  A    between atoms: _526  and  _529
REMARK  219  A    between atoms: _529  and  _530
REMARK  220  A    between atoms: _530  and  _531
REMARK  221  A    between atoms: _531  and  _532
REMARK  222  A    between atoms: _532  and  _533
REMARK  223  A    between atoms: _537  and  _539
REMARK  224  A    between atoms: _539  and  _540
REMARK  225  A    between atoms: _539  and  _542
REMARK  226  A    between atoms: _542  and  _543
REMARK  227  A    between atoms: _546  and  _548
REMARK  228  A    between atoms: _548  and  _549
REMARK  229  A    between atoms: _548  and  _551
REMARK  230  A    between atoms: _551  and  _552
REMARK  231  A    between atoms: _555  and  _557
REMARK  232  A    between atoms: _557  and  _558
REMARK  233  A    between atoms: _557  and  _560
REMARK  234  A    between atoms: _560  and  _561
REMARK  235  A    between atoms: _564  and  _566
REMARK  236  A    between atoms: _566  and  _567
REMARK  237  A    between atoms: _566  and  _569
REMARK  238  A    between atoms: _569  and  _570
REMARK  239  A    between atoms: _576  and  _578
REMARK  240  A    between atoms: _578  and  _579
REMARK  241  A    between atoms: _581  and  _583
REMARK  242  A    between atoms: _583  and  _584
REMARK  243  A    between atoms: _583  and  _586
REMARK  244  A    between atoms: _586  and  _587
REMARK  245  A    between atoms: _590  and  _592
REMARK  246  A    between atoms: _592  and  _593
REMARK  247  A    between atoms: _596  and  _598
REMARK  248  A    between atoms: _598  and  _599
REMARK  249  A    between atoms: _598  and  _601
REMARK  250  A    between atoms: _601  and  _602
REMARK  251  A    between atoms: _607  and  _609
REMARK  252  A    between atoms: _609  and  _610
REMARK  253  A    between atoms: _609  and  _612
REMARK  254  A    between atoms: _612  and  _613
REMARK                            x       y       z     vdW  Elec       q    Type
REMARK                         _______ _______ _______ _____ _____    ______ ____
ROOT
ATOM      1  O   HOH     1      13.852  -2.823  37.019  0.00  0.00    +0.000 OA
ENDROOT
TORSDOF 0
REMARK  Name = ../refined-set-2016/2baj/2baj_pocket.pdb
REMARK  254 active torsions:
REMARK  status: ('A' for Active; 'I' for Inactive)
REMARK    1  A    between atoms: _1  and  _3
REMARK    2  A    between atoms: _3  and  _4
REMARK    3  A    between atoms: _3  and  _6
REMARK    4  A    between atoms: _6  and  _7
REMARK    5  A    between atoms: _17  and  _19
REMARK    6  A    between atoms: _19  and  _20
REMARK    7  A    between atoms: _19  and  _22
REMARK    8  A    between atoms: _25  and  _27
REMARK    9  A    between atoms: _27  and  _28
REMARK   10  A    between atoms: _27  and  _30
REMARK   11  A    between atoms: _30  and  _31
REMARK   12  A    between atoms: _36  and  _37
REMARK   13  A    between atoms: _39  and  _41
REMARK   14  A    between atoms: _41  and  _42
REMARK   15  A    between atoms: _41  and  _44
REMARK   16  A    between atoms: _44  and  _45
REMARK   17  A    between atoms: _47  and  _49
REMARK   18  A    between atoms: _49  and  _50
REMARK   19  A    between atoms: _49  and  _52
REMARK   20  A    between atoms: _55  and  _57
REMARK   21  A    between atoms: _57  and  _58
REMARK   22  A    between atoms: _57  and  _60
REMARK   23  A    between atoms: _62  and  _64
REMARK   24  A    between atoms: _64  and  _65
REMARK   25  A    between atoms: _68  and  _70
REMARK   26  A    between atoms: _70  and  _71
REMARK   27  A    between atoms: _70  and  _73
REMARK   28  A    between atoms: _76  and  _78
REMARK   29  A    between atoms: _78  and  _79
REMARK   30  A    between atoms: _82  and  _84
REMARK   31  A    between atoms: _84  and  _85
REMARK   32  A    between atoms: _84  and  _87
REMARK   33  A    between atoms: _90  and  _92
REMARK   34  A    between atoms: _92  and  _93
REMARK   35  A    between atoms: _92  and  _95
REMARK   36  A    between atoms: _95  and  _96
REMARK   37  A    between atoms: _96  and  _97
REMARK   38  A    between atoms: _97  and  _98
REMARK   39  A    between atoms: _98  and  _99
REMARK   40  A    between atoms: _103  and  _105
REMARK   41  A    between atoms: _105  and  _106
REMARK   42  A    between atoms: _105  and  _108
REMARK   43  A    between atoms: _108  and  _109
REMARK   44  A    between atoms: _109  and  _110
REMARK   45  A    between atoms: _110  and  _111
REMARK   46  A    between atoms: _111  and  _112
REMARK   47  A    between atoms: _116  and  _118
REMARK   48  A    between atoms: _118  and  _119
REMARK   49  A    between atoms: _118  and  _121
REMARK   50  A    between atoms: _121  and  _122
REMARK   51  A    between atoms: _125  and  _127
REMARK   52  A    between atoms: _127  and  _128
REMARK   53  A    between atoms: _127  and  _130
REMARK   54  A    between atoms: _130  and  _131
REMARK   55  A    between atoms: _131  and  _132
REMARK   56  A    between atoms: _132  and  _133
REMARK   57  A    between atoms: _133  and  _134
REMARK   58  A    between atoms: _138  and  _140
REMARK   59  A    between atoms: _140  and  _141
REMARK   60  A    between atoms: _140  and  _143
REMARK   61  A    between atoms: _143  and  _144
REMARK   62  A    between atoms: _144  and  _145
REMARK   63  A    between atoms: _145  and  _146
REMARK   64  A    between atoms: _155  and  _157
REMARK   65  A    between atoms: _157  and  _158
REMARK   66  A    between atoms: _157  and  _160
REMARK   67  A    between atoms: _160  and  _161
REMARK   68  A    between atoms: _164  and  _166
REMARK   69  A    between atoms: _166  and  _167
REMARK   70  A    between atoms: _166  and  _169
REMARK   71  A    between atoms: _169  and  _170
REMARK   72  A    between atoms: _175  and  _176
REMARK   73  A    between atoms: _178  and  _180
REMARK   74  A    between atoms: _180  and  _181
REMARK   75  A    between atoms: _180  and  _183
REMARK   76  A    between atoms: _183  and  _184
REMARK   77  A    between atoms: _184  and  _185
REMARK   78  A    between atoms: _185  and  _186
REMARK   79  A    between atoms: _195  and  _197
REMARK   80  A    between atoms: _197  and  _198
REMARK   81  A    between atoms: _197  and  _200
REMARK   82  A    between atoms: _200  and  _201
REMARK   83  A    between atoms: _201  and  _202
REMARK   84  A    between atoms: _205  and  _207
REMARK   85  A    between atoms: _207  and  _208
REMARK   86  A    between atoms: _207  and  _210
REMARK   87  A    between atoms: _210  and  _211
REMARK   88  A    between atoms: _214  and  _216
REMARK   89  A    between atoms: _216  and  _217
REMARK   90  A    between atoms: _216  and  _219
REMARK   91  A    between atoms: _219  and  _220
REMARK   92  A    between atoms: _220  and  _221
REMARK   93  A    between atoms: _221  and  _222
REMARK   94  A    between atoms: _231  and  _233
REMARK   95  A    between atoms: _233  and  _234
REMARK   96  A    between atoms: _233  and  _236
REMARK   97  A    between atoms: _236  and  _237
REMARK   98  A    between atoms: _240  and  _242
REMARK   99  A    between atoms: _242  and  _243
REMARK  100  A    between atoms: _242  and  _245
REMARK  101  A    between atoms: _245  and  _246
REMARK  102  A    between atoms: _249  and  _251
REMARK  103  A    between atoms: _251  and  _252
REMARK  104  A    between atoms: _251  and  _254
REMARK  105  A    between atoms: _254  and  _255
REMARK  106  A    between atoms: _260  and  _262
REMARK  107  A    between atoms: _262  and  _263
REMARK  108  A    between atoms: _262  and  _265
REMARK  109  A    between atoms: _265  and  _266
REMARK  110  A    between atoms: _266  and  _267
REMARK  111  A    between atoms: _269  and  _271
REMARK  112  A    between atoms: _271  and  _272
REMARK  113  A    between atoms: _271  and  _274
REMARK  114  A    between atoms: _274  and  _275
REMARK  115  A    between atoms: _280  and  _282
REMARK  116  A    between atoms: _282  and  _283
REMARK  117  A    between atoms: _282  and  _285
REMARK  118  A    between atoms: _288  and  _290
REMARK  119  A    between atoms: _290  and  _291
REMARK  120  A    between atoms: _290  and  _293
REMARK  121  A    between atoms: _293  and  _294
REMARK  122  A    between atoms: _297  and  _299
REMARK  123  A    between atoms: _299  and  _300
REMARK  124  A    between atoms: _302  and  _304
REMARK  125  A    between atoms: _304  and  _305
REMARK  126  A    between atoms: _304  and  _307
REMARK  127  A    between atoms: _307  and  _308
REMARK  128  A    between atoms: _311  and  _313
REMARK  129  A    between atoms: _313  and  _314
REMARK  130  A    between atoms: _313  and  _316
REMARK  131  A    between atoms: _316  and  _317
REMARK  132  A    between atoms: _320  and  _322
REMARK  133  A    between atoms: _322  and  _323
REMARK  134  A    between atoms: _322  and  _325
REMARK  135  A    between atoms: _325  and  _326
REMARK  136  A    between atoms: _329  and  _331
REMARK  137  A    between atoms: _331  and  _332
REMARK  138  A    between atoms: _331  and  _334
REMARK  139  A    between atoms: _334  and  _335
REMARK  140  A    between atoms: _340  and  _341
REMARK  141  A    between atoms: _343  and  _345
REMARK  142  A    between atoms: _345  and  _346
REMARK  143  A    between atoms: _345  and  _348
REMARK  144  A    between atoms: _348  and  _349
REMARK  145  A    between atoms: _352  and  _354
REMARK  146  A    between atoms: _354  and  _355
REMARK  147  A    between atoms: _354  and  _357
REMARK  148  A    between atoms: _360  and  _362
REMARK  149  A    between atoms: _362  and  _363
REMARK  150  A    between atoms: _362  and  _365
REMARK  151  A    between atoms: _365  and  _366
REMARK  152  A    between atoms: _369  and  _371
REMARK  153  A    between atoms: _371  and  _372
REMARK  154  A    between atoms: _371  and  _374
REMARK  155  A    between atoms: _374  and  _375
REMARK  156  A    between atoms: _380  and  _382
REMARK  157  A    between atoms: _382  and  _383
REMARK  158  A    between atoms: _382  and  _385
REMARK  159  A    between atoms: _385  and  _386
REMARK  160  A    between atoms: _389  and  _391
REMARK  161  A    between atoms: _391  and  _392
REMARK  162  A    between atoms: _391  and  _394
REMARK  163  A    between atoms: _394  and  _395
REMARK  164  A    between atoms: _395  and  _396
REMARK  165  A    between atoms: _398  and  _400
REMARK  166  A    between atoms: _400  and  _401
REMARK  167  A    between atoms: _403  and  _405
REMARK  168  A    between atoms: _405  and  _406
REMARK  169  A    between atoms: _405  and  _408
REMARK  170  A    between atoms: _408  and  _409
REMARK  171  A    between atoms: _412  and  _414
REMARK  172  A    between atoms: _414  and  _415
REMARK  173  A    between atoms: _414  and  _417
REMARK  174  A    between atoms: _417  and  _418
REMARK  175  A    between atoms: _423  and  _424
REMARK  176  A    between atoms: _426  and  _428
REMARK  177  A    between atoms: _428  and  _429
REMARK  178  A    between atoms: _428  and  _431
REMARK  179  A    between atoms: _431  and  _432
REMARK  180  A    between atoms: _435  and  _437
REMARK  181  A    between atoms: _437  and  _438
REMARK  182  A    between atoms: _437  and  _440
REMARK  183  A    between atoms: _440  and  _441
REMARK  184  A    between atoms: _444  and  _446
REMARK  185  A    between atoms: _446  and  _447
REMARK  186  A    between atoms: _446  and  _449
REMARK  187  A    between atoms: _449  and  _450
REMARK  188  A    between atoms: _453  and  _455
REMARK  189  A    between atoms: _455  and  _456
REMARK  190  A    between atoms: _455  and  _458
REMARK  191  A    between atoms: _458  and  _459
REMARK  192  A    between atoms: _464  and  _466
REMARK  193  A    between atoms: _466  and  _467
REMARK  194  A    between atoms: _466  and  _469
REMARK  195  A    between atoms: _469  and  _470
REMARK  196  A    between atoms: _470  and  _471
REMARK  197  A    between atoms: _471  and  _472
REMARK  198  A    between atoms: _481  and  _483
REMARK  199  A    between atoms: _483  and  _484
REMARK  200  A    between atoms: _483  and  _486
REMARK  201  A    between atoms: _486  and  _487
REMARK  202  A    between atoms: _490  and  _492
REMARK  203  A    between atoms: _492  and  _493
REMARK  204  A    between atoms: _492  and  _495
REMARK  205  A    between atoms: _495  and  _496
REMARK  206  A    between atoms: _499  and  _501
REMARK  207  A    between atoms: _501  and  _502
REMARK  208  A    between atoms: _501  and  _504
REMARK  209  A    between atoms: _504  and  _505
REMARK  210  A    between atoms: _507  and  _509
REMARK  211  A    between atoms: _509  and  _510
REMARK  212  A    between atoms: _509  and  _512
REMARK  213  A    between atoms: _512  and  _513
REMARK  214  A    between atoms: _518  and  _520
REMARK  215  A    between atoms: _520  and  _521
REMARK  216  A    between atoms: _524  and  _526
REMARK  217  A    between atoms: _526  and  _527
REMARK  218  A    between atoms: _526  and  _529
REMARK  219  A    between atoms: _529  and  _530
REMARK  220  A    between atoms: _530  and  _531
REMARK  221  A    between atoms: _531  and  _532
REMARK  222  A    between atoms: _532  and  _533
REMARK  223  A    between atoms: _537  and  _539
REMARK  224  A    between atoms: _539  and  _540
REMARK  225  A    between atoms: _539  and  _542
REMARK  226  A    between atoms: _542  and  _543
REMARK  227  A    between atoms: _546  and  _548
REMARK  228  A    between atoms: _548  and  _549
REMARK  229  A    between atoms: _548  and  _551
REMARK  230  A    between atoms: _551  and  _552
REMARK  231  A    between atoms: _555  and  _557
REMARK  232  A    between atoms: _557  and  _558
REMARK  233  A    between atoms: _557  and  _560
REMARK  234  A    between atoms: _560  and  _561
REMARK  235  A    between atoms: _564  and  _566
REMARK  236  A    between atoms: _566  and  _567
REMARK  237  A    between atoms: _566  and  _569
REMARK  238  A    between atoms: _569  and  _570
REMARK  239  A    between atoms: _576  and  _578
REMARK  240  A    between atoms: _578  and  _579
REMARK  241  A    between atoms: _581  and  _583
REMARK  242  A    between atoms: _583  and  _584
REMARK  243  A    between atoms: _583  and  _586
REMARK  244  A    between atoms: _586  and  _587
REMARK  245  A    between atoms: _590  and  _592
REMARK  246  A    between atoms: _592  and  _593
REMARK  247  A    between atoms: _596  and  _598
REMARK  248  A    between atoms: _598  and  _599
REMARK  249  A    between atoms: _598  and  _601
REMARK  250  A    between atoms: _601  and  _602
REMARK  251  A    between atoms: _607  and  _609
REMARK  252  A    between atoms: _609  and  _610
REMARK  253  A    between atoms: _609  and  _612
REMARK  254  A    between atoms: _612  and  _613
REMARK                            x       y       z     vdW  Elec       q    Type
REMARK                         _______ _______ _______ _____ _____    ______ ____
ROOT
ATOM      1  O   HOH     1       9.955  -3.872  36.568  0.00  0.00    +0.000 OA
ENDROOT
TORSDOF 0
REMARK  Name = ../refined-set-2016/2baj/2baj_pocket.pdb
REMARK  254 active torsions:
REMARK  status: ('A' for Active; 'I' for Inactive)
REMARK    1  A    between atoms: _1  and  _3
REMARK    2  A    between atoms: _3  and  _4
REMARK    3  A    between atoms: _3  and  _6
REMARK    4  A    between atoms: _6  and  _7
REMARK    5  A    between atoms: _17  and  _19
REMARK    6  A    between atoms: _19  and  _20
REMARK    7  A    between atoms: _19  and  _22
REMARK    8  A    between atoms: _25  and  _27
REMARK    9  A    between atoms: _27  and  _28
REMARK   10  A    between atoms: _27  and  _30
REMARK   11  A    between atoms: _30  and  _31
REMARK   12  A    between atoms: _36  and  _37
REMARK   13  A    between atoms: _39  and  _41
REMARK   14  A    between atoms: _41  and  _42
REMARK   15  A    between atoms: _41  and  _44
REMARK   16  A    between atoms: _44  and  _45
REMARK   17  A    between atoms: _47  and  _49
REMARK   18  A    between atoms: _49  and  _50
REMARK   19  A    between atoms: _49  and  _52
REMARK   20  A    between atoms: _55  and  _57
REMARK   21  A    between atoms: _57  and  _58
REMARK   22  A    between atoms: _57  and  _60
REMARK   23  A    between atoms: _62  and  _64
REMARK   24  A    between atoms: _64  and  _65
REMARK   25  A    between atoms: _68  and  _70
REMARK   26  A    between atoms: _70  and  _71
REMARK   27  A    between atoms: _70  and  _73
REMARK   28  A    between atoms: _76  and  _78
REMARK   29  A    between atoms: _78  and  _79
REMARK   30  A    between atoms: _82  and  _84
REMARK   31  A    between atoms: _84  and  _85
REMARK   32  A    between atoms: _84  and  _87
REMARK   33  A    between atoms: _90  and  _92
REMARK   34  A    between atoms: _92  and  _93
REMARK   35  A    between atoms: _92  and  _95
REMARK   36  A    between atoms: _95  and  _96
REMARK   37  A    between atoms: _96  and  _97
REMARK   38  A    between atoms: _97  and  _98
REMARK   39  A    between atoms: _98  and  _99
REMARK   40  A    between atoms: _103  and  _105
REMARK   41  A    between atoms: _105  and  _106
REMARK   42  A    between atoms: _105  and  _108
REMARK   43  A    between atoms: _108  and  _109
REMARK   44  A    between atoms: _109  and  _110
REMARK   45  A    between atoms: _110  and  _111
REMARK   46  A    between atoms: _111  and  _112
REMARK   47  A    between atoms: _116  and  _118
REMARK   48  A    between atoms: _118  and  _119
REMARK   49  A    between atoms: _118  and  _121
REMARK   50  A    between atoms: _121  and  _122
REMARK   51  A    between atoms: _125  and  _127
REMARK   52  A    between atoms: _127  and  _128
REMARK   53  A    between atoms: _127  and  _130
REMARK   54  A    between atoms: _130  and  _131
REMARK   55  A    between atoms: _131  and  _132
REMARK   56  A    between atoms: _132  and  _133
REMARK   57  A    between atoms: _133  and  _134
REMARK   58  A    between atoms: _138  and  _140
REMARK   59  A    between atoms: _140  and  _141
REMARK   60  A    between atoms: _140  and  _143
REMARK   61  A    between atoms: _143  and  _144
REMARK   62  A    between atoms: _144  and  _145
REMARK   63  A    between atoms: _145  and  _146
REMARK   64  A    between atoms: _155  and  _157
REMARK   65  A    between atoms: _157  and  _158
REMARK   66  A    between atoms: _157  and  _160
REMARK   67  A    between atoms: _160  and  _161
REMARK   68  A    between atoms: _164  and  _166
REMARK   69  A    between atoms: _166  and  _167
REMARK   70  A    between atoms: _166  and  _169
REMARK   71  A    between atoms: _169  and  _170
REMARK   72  A    between atoms: _175  and  _176
REMARK   73  A    between atoms: _178  and  _180
REMARK   74  A    between atoms: _180  and  _181
REMARK   75  A    between atoms: _180  and  _183
REMARK   76  A    between atoms: _183  and  _184
REMARK   77  A    between atoms: _184  and  _185
REMARK   78  A    between atoms: _185  and  _186
REMARK   79  A    between atoms: _195  and  _197
REMARK   80  A    between atoms: _197  and  _198
REMARK   81  A    between atoms: _197  and  _200
REMARK   82  A    between atoms: _200  and  _201
REMARK   83  A    between atoms: _201  and  _202
REMARK   84  A    between atoms: _205  and  _207
REMARK   85  A    between atoms: _207  and  _208
REMARK   86  A    between atoms: _207  and  _210
REMARK   87  A    between atoms: _210  and  _211
REMARK   88  A    between atoms: _214  and  _216
REMARK   89  A    between atoms: _216  and  _217
REMARK   90  A    between atoms: _216  and  _219
REMARK   91  A    between atoms: _219  and  _220
REMARK   92  A    between atoms: _220  and  _221
REMARK   93  A    between atoms: _221  and  _222
REMARK   94  A    between atoms: _231  and  _233
REMARK   95  A    between atoms: _233  and  _234
REMARK   96  A    between atoms: _233  and  _236
REMARK   97  A    between atoms: _236  and  _237
REMARK   98  A    between atoms: _240  and  _242
REMARK   99  A    between atoms: _242  and  _243
REMARK  100  A    between atoms: _242  and  _245
REMARK  101  A    between atoms: _245  and  _246
REMARK  102  A    between atoms: _249  and  _251
REMARK  103  A    between atoms: _251  and  _252
REMARK  104  A    between atoms: _251  and  _254
REMARK  105  A    between atoms: _254  and  _255
REMARK  106  A    between atoms: _260  and  _262
REMARK  107  A    between atoms: _262  and  _263
REMARK  108  A    between atoms: _262  and  _265
REMARK  109  A    between atoms: _265  and  _266
REMARK  110  A    between atoms: _266  and  _267
REMARK  111  A    between atoms: _269  and  _271
REMARK  112  A    between atoms: _271  and  _272
REMARK  113  A    between atoms: _271  and  _274
REMARK  114  A    between atoms: _274  and  _275
REMARK  115  A    between atoms: _280  and  _282
REMARK  116  A    between atoms: _282  and  _283
REMARK  117  A    between atoms: _282  and  _285
REMARK  118  A    between atoms: _288  and  _290
REMARK  119  A    between atoms: _290  and  _291
REMARK  120  A    between atoms: _290  and  _293
REMARK  121  A    between atoms: _293  and  _294
REMARK  122  A    between atoms: _297  and  _299
REMARK  123  A    between atoms: _299  and  _300
REMARK  124  A    between atoms: _302  and  _304
REMARK  125  A    between atoms: _304  and  _305
REMARK  126  A    between atoms: _304  and  _307
REMARK  127  A    between atoms: _307  and  _308
REMARK  128  A    between atoms: _311  and  _313
REMARK  129  A    between atoms: _313  and  _314
REMARK  130  A    between atoms: _313  and  _316
REMARK  131  A    between atoms: _316  and  _317
REMARK  132  A    between atoms: _320  and  _322
REMARK  133  A    between atoms: _322  and  _323
REMARK  134  A    between atoms: _322  and  _325
REMARK  135  A    between atoms: _325  and  _326
REMARK  136  A    between atoms: _329  and  _331
REMARK  137  A    between atoms: _331  and  _332
REMARK  138  A    between atoms: _331  and  _334
REMARK  139  A    between atoms: _334  and  _335
REMARK  140  A    between atoms: _340  and  _341
REMARK  141  A    between atoms: _343  and  _345
REMARK  142  A    between atoms: _345  and  _346
REMARK  143  A    between atoms: _345  and  _348
REMARK  144  A    between atoms: _348  and  _349
REMARK  145  A    between atoms: _352  and  _354
REMARK  146  A    between atoms: _354  and  _355
REMARK  147  A    between atoms: _354  and  _357
REMARK  148  A    between atoms: _360  and  _362
REMARK  149  A    between atoms: _362  and  _363
REMARK  150  A    between atoms: _362  and  _365
REMARK  151  A    between atoms: _365  and  _366
REMARK  152  A    between atoms: _369  and  _371
REMARK  153  A    between atoms: _371  and  _372
REMARK  154  A    between atoms: _371  and  _374
REMARK  155  A    between atoms: _374  and  _375
REMARK  156  A    between atoms: _380  and  _382
REMARK  157  A    between atoms: _382  and  _383
REMARK  158  A    between atoms: _382  and  _385
REMARK  159  A    between atoms: _385  and  _386
REMARK  160  A    between atoms: _389  and  _391
REMARK  161  A    between atoms: _391  and  _392
REMARK  162  A    between atoms: _391  and  _394
REMARK  163  A    between atoms: _394  and  _395
REMARK  164  A    between atoms: _395  and  _396
REMARK  165  A    between atoms: _398  and  _400
REMARK  166  A    between atoms: _400  and  _401
REMARK  167  A    between atoms: _403  and  _405
REMARK  168  A    between atoms: _405  and  _406
REMARK  169  A    between atoms: _405  and  _408
REMARK  170  A    between atoms: _408  and  _409
REMARK  171  A    between atoms: _412  and  _414
REMARK  172  A    between atoms: _414  and  _415
REMARK  173  A    between atoms: _414  and  _417
REMARK  174  A    between atoms: _417  and  _418
REMARK  175  A    between atoms: _423  and  _424
REMARK  176  A    between atoms: _426  and  _428
REMARK  177  A    between atoms: _428  and  _429
REMARK  178  A    between atoms: _428  and  _431
REMARK  179  A    between atoms: _431  and  _432
REMARK  180  A    between atoms: _435  and  _437
REMARK  181  A    between atoms: _437  and  _438
REMARK  182  A    between atoms: _437  and  _440
REMARK  183  A    between atoms: _440  and  _441
REMARK  184  A    between atoms: _444  and  _446
REMARK  185  A    between atoms: _446  and  _447
REMARK  186  A    between atoms: _446  and  _449
REMARK  187  A    between atoms: _449  and  _450
REMARK  188  A    between atoms: _453  and  _455
REMARK  189  A    between atoms: _455  and  _456
REMARK  190  A    between atoms: _455  and  _458
REMARK  191  A    between atoms: _458  and  _459
REMARK  192  A    between atoms: _464  and  _466
REMARK  193  A    between atoms: _466  and  _467
REMARK  194  A    between atoms: _466  and  _469
REMARK  195  A    between atoms: _469  and  _470
REMARK  196  A    between atoms: _470  and  _471
REMARK  197  A    between atoms: _471  and  _472
REMARK  198  A    between atoms: _481  and  _483
REMARK  199  A    between atoms: _483  and  _484
REMARK  200  A    between atoms: _483  and  _486
REMARK  201  A    between atoms: _486  and  _487
REMARK  202  A    between atoms: _490  and  _492
REMARK  203  A    between atoms: _492  and  _493
REMARK  204  A    between atoms: _492  and  _495
REMARK  205  A    between atoms: _495  and  _496
REMARK  206  A    between atoms: _499  and  _501
REMARK  207  A    between atoms: _501  and  _502
REMARK  208  A    between atoms: _501  and  _504
REMARK  209  A    between atoms: _504  and  _505
REMARK  210  A    between atoms: _507  and  _509
REMARK  211  A    between atoms: _509  and  _510
REMARK  212  A    between atoms: _509  and  _512
REMARK  213  A    between atoms: _512  and  _513
REMARK  214  A    between atoms: _518  and  _520
REMARK  215  A    between atoms: _520  and  _521
REMARK  216  A    between atoms: _524  and  _526
REMARK  217  A    between atoms: _526  and  _527
REMARK  218  A    between atoms: _526  and  _529
REMARK  219  A    between atoms: _529  and  _530
REMARK  220  A    between atoms: _530  and  _531
REMARK  221  A    between atoms: _531  and  _532
REMARK  222  A    between atoms: _532  and  _533
REMARK  223  A    between atoms: _537  and  _539
REMARK  224  A    between atoms: _539  and  _540
REMARK  225  A    between atoms: _539  and  _542
REMARK  226  A    between atoms: _542  and  _543
REMARK  227  A    between atoms: _546  and  _548
REMARK  228  A    between atoms: _548  and  _549
REMARK  229  A    between atoms: _548  and  _551
REMARK  230  A    between atoms: _551  and  _552
REMARK  231  A    between atoms: _555  and  _557
REMARK  232  A    between atoms: _557  and  _558
REMARK  233  A    between atoms: _557  and  _560
REMARK  234  A    between atoms: _560  and  _561
REMARK  235  A    between atoms: _564  and  _566
REMARK  236  A    between atoms: _566  and  _567
REMARK  237  A    between atoms: _566  and  _569
REMARK  238  A    between atoms: _569  and  _570
REMARK  239  A    between atoms: _576  and  _578
REMARK  240  A    between atoms: _578  and  _579
REMARK  241  A    between atoms: _581  and  _583
REMARK  242  A    between atoms: _583  and  _584
REMARK  243  A    between atoms: _583  and  _586
REMARK  244  A    between atoms: _586  and  _587
REMARK  245  A    between atoms: _590  and  _592
REMARK  246  A    between atoms: _592  and  _593
REMARK  247  A    between atoms: _596  and  _598
REMARK  248  A    between atoms: _598  and  _599
REMARK  249  A    between atoms: _598  and  _601
REMARK  250  A    between atoms: _601  and  _602
REMARK  251  A    between atoms: _607  and  _609
REMARK  252  A    between atoms: _609  and  _610
REMARK  253  A    between atoms: _609  and  _612
REMARK  254  A    between atoms: _612  and  _613
REMARK                            x       y       z     vdW  Elec       q    Type
REMARK                         _______ _______ _______ _____ _____    ______ ____
ROOT
ATOM      1  O   HOH     1      10.462   5.186  32.387  0.00  0.00    +0.000 OA
ENDROOT
TORSDOF 0
REMARK  Name = ../refined-set-2016/2baj/2baj_pocket.pdb
REMARK  254 active torsions:
REMARK  status: ('A' for Active; 'I' for Inactive)
REMARK    1  A    between atoms: _1  and  _3
REMARK    2  A    between atoms: _3  and  _4
REMARK    3  A    between atoms: _3  and  _6
REMARK    4  A    between atoms: _6  and  _7
REMARK    5  A    between atoms: _17  and  _19
REMARK    6  A    between atoms: _19  and  _20
REMARK    7  A    between atoms: _19  and  _22
REMARK    8  A    between atoms: _25  and  _27
REMARK    9  A    between atoms: _27  and  _28
REMARK   10  A    between atoms: _27  and  _30
REMARK   11  A    between atoms: _30  and  _31
REMARK   12  A    between atoms: _36  and  _37
REMARK   13  A    between atoms: _39  and  _41
REMARK   14  A    between atoms: _41  and  _42
REMARK   15  A    between atoms: _41  and  _44
REMARK   16  A    between atoms: _44  and  _45
REMARK   17  A    between atoms: _47  and  _49
REMARK   18  A    between atoms: _49  and  _50
REMARK   19  A    between atoms: _49  and  _52
REMARK   20  A    between atoms: _55  and  _57
REMARK   21  A    between atoms: _57  and  _58
REMARK   22  A    between atoms: _57  and  _60
REMARK   23  A    between atoms: _62  and  _64
REMARK   24  A    between atoms: _64  and  _65
REMARK   25  A    between atoms: _68  and  _70
REMARK   26  A    between atoms: _70  and  _71
REMARK   27  A    between atoms: _70  and  _73
REMARK   28  A    between atoms: _76  and  _78
REMARK   29  A    between atoms: _78  and  _79
REMARK   30  A    between atoms: _82  and  _84
REMARK   31  A    between atoms: _84  and  _85
REMARK   32  A    between atoms: _84  and  _87
REMARK   33  A    between atoms: _90  and  _92
REMARK   34  A    between atoms: _92  and  _93
REMARK   35  A    between atoms: _92  and  _95
REMARK   36  A    between atoms: _95  and  _96
REMARK   37  A    between atoms: _96  and  _97
REMARK   38  A    between atoms: _97  and  _98
REMARK   39  A    between atoms: _98  and  _99
REMARK   40  A    between atoms: _103  and  _105
REMARK   41  A    between atoms: _105  and  _106
REMARK   42  A    between atoms: _105  and  _108
REMARK   43  A    between atoms: _108  and  _109
REMARK   44  A    between atoms: _109  and  _110
REMARK   45  A    between atoms: _110  and  _111
REMARK   46  A    between atoms: _111  and  _112
REMARK   47  A    between atoms: _116  and  _118
REMARK   48  A    between atoms: _118  and  _119
REMARK   49  A    between atoms: _118  and  _121
REMARK   50  A    between atoms: _121  and  _122
REMARK   51  A    between atoms: _125  and  _127
REMARK   52  A    between atoms: _127  and  _128
REMARK   53  A    between atoms: _127  and  _130
REMARK   54  A    between atoms: _130  and  _131
REMARK   55  A    between atoms: _131  and  _132
REMARK   56  A    between atoms: _132  and  _133
REMARK   57  A    between atoms: _133  and  _134
REMARK   58  A    between atoms: _138  and  _140
REMARK   59  A    between atoms: _140  and  _141
REMARK   60  A    between atoms: _140  and  _143
REMARK   61  A    between atoms: _143  and  _144
REMARK   62  A    between atoms: _144  and  _145
REMARK   63  A    between atoms: _145  and  _146
REMARK   64  A    between atoms: _155  and  _157
REMARK   65  A    between atoms: _157  and  _158
REMARK   66  A    between atoms: _157  and  _160
REMARK   67  A    between atoms: _160  and  _161
REMARK   68  A    between atoms: _164  and  _166
REMARK   69  A    between atoms: _166  and  _167
REMARK   70  A    between atoms: _166  and  _169
REMARK   71  A    between atoms: _169  and  _170
REMARK   72  A    between atoms: _175  and  _176
REMARK   73  A    between atoms: _178  and  _180
REMARK   74  A    between atoms: _180  and  _181
REMARK   75  A    between atoms: _180  and  _183
REMARK   76  A    between atoms: _183  and  _184
REMARK   77  A    between atoms: _184  and  _185
REMARK   78  A    between atoms: _185  and  _186
REMARK   79  A    between atoms: _195  and  _197
REMARK   80  A    between atoms: _197  and  _198
REMARK   81  A    between atoms: _197  and  _200
REMARK   82  A    between atoms: _200  and  _201
REMARK   83  A    between atoms: _201  and  _202
REMARK   84  A    between atoms: _205  and  _207
REMARK   85  A    between atoms: _207  and  _208
REMARK   86  A    between atoms: _207  and  _210
REMARK   87  A    between atoms: _210  and  _211
REMARK   88  A    between atoms: _214  and  _216
REMARK   89  A    between atoms: _216  and  _217
REMARK   90  A    between atoms: _216  and  _219
REMARK   91  A    between atoms: _219  and  _220
REMARK   92  A    between atoms: _220  and  _221
REMARK   93  A    between atoms: _221  and  _222
REMARK   94  A    between atoms: _231  and  _233
REMARK   95  A    between atoms: _233  and  _234
REMARK   96  A    between atoms: _233  and  _236
REMARK   97  A    between atoms: _236  and  _237
REMARK   98  A    between atoms: _240  and  _242
REMARK   99  A    between atoms: _242  and  _243
REMARK  100  A    between atoms: _242  and  _245
REMARK  101  A    between atoms: _245  and  _246
REMARK  102  A    between atoms: _249  and  _251
REMARK  103  A    between atoms: _251  and  _252
REMARK  104  A    between atoms: _251  and  _254
REMARK  105  A    between atoms: _254  and  _255
REMARK  106  A    between atoms: _260  and  _262
REMARK  107  A    between atoms: _262  and  _263
REMARK  108  A    between atoms: _262  and  _265
REMARK  109  A    between atoms: _265  and  _266
REMARK  110  A    between atoms: _266  and  _267
REMARK  111  A    between atoms: _269  and  _271
REMARK  112  A    between atoms: _271  and  _272
REMARK  113  A    between atoms: _271  and  _274
REMARK  114  A    between atoms: _274  and  _275
REMARK  115  A    between atoms: _280  and  _282
REMARK  116  A    between atoms: _282  and  _283
REMARK  117  A    between atoms: _282  and  _285
REMARK  118  A    between atoms: _288  and  _290
REMARK  119  A    between atoms: _290  and  _291
REMARK  120  A    between atoms: _290  and  _293
REMARK  121  A    between atoms: _293  and  _294
REMARK  122  A    between atoms: _297  and  _299
REMARK  123  A    between atoms: _299  and  _300
REMARK  124  A    between atoms: _302  and  _304
REMARK  125  A    between atoms: _304  and  _305
REMARK  126  A    between atoms: _304  and  _307
REMARK  127  A    between atoms: _307  and  _308
REMARK  128  A    between atoms: _311  and  _313
REMARK  129  A    between atoms: _313  and  _314
REMARK  130  A    between atoms: _313  and  _316
REMARK  131  A    between atoms: _316  and  _317
REMARK  132  A    between atoms: _320  and  _322
REMARK  133  A    between atoms: _322  and  _323
REMARK  134  A    between atoms: _322  and  _325
REMARK  135  A    between atoms: _325  and  _326
REMARK  136  A    between atoms: _329  and  _331
REMARK  137  A    between atoms: _331  and  _332
REMARK  138  A    between atoms: _331  and  _334
REMARK  139  A    between atoms: _334  and  _335
REMARK  140  A    between atoms: _340  and  _341
REMARK  141  A    between atoms: _343  and  _345
REMARK  142  A    between atoms: _345  and  _346
REMARK  143  A    between atoms: _345  and  _348
REMARK  144  A    between atoms: _348  and  _349
REMARK  145  A    between atoms: _352  and  _354
REMARK  146  A    between atoms: _354  and  _355
REMARK  147  A    between atoms: _354  and  _357
REMARK  148  A    between atoms: _360  and  _362
REMARK  149  A    between atoms: _362  and  _363
REMARK  150  A    between atoms: _362  and  _365
REMARK  151  A    between atoms: _365  and  _366
REMARK  152  A    between atoms: _369  and  _371
REMARK  153  A    between atoms: _371  and  _372
REMARK  154  A    between atoms: _371  and  _374
REMARK  155  A    between atoms: _374  and  _375
REMARK  156  A    between atoms: _380  and  _382
REMARK  157  A    between atoms: _382  and  _383
REMARK  158  A    between atoms: _382  and  _385
REMARK  159  A    between atoms: _385  and  _386
REMARK  160  A    between atoms: _389  and  _391
REMARK  161  A    between atoms: _391  and  _392
REMARK  162  A    between atoms: _391  and  _394
REMARK  163  A    between atoms: _394  and  _395
REMARK  164  A    between atoms: _395  and  _396
REMARK  165  A    between atoms: _398  and  _400
REMARK  166  A    between atoms: _400  and  _401
REMARK  167  A    between atoms: _403  and  _405
REMARK  168  A    between atoms: _405  and  _406
REMARK  169  A    between atoms: _405  and  _408
REMARK  170  A    between atoms: _408  and  _409
REMARK  171  A    between atoms: _412  and  _414
REMARK  172  A    between atoms: _414  and  _415
REMARK  173  A    between atoms: _414  and  _417
REMARK  174  A    between atoms: _417  and  _418
REMARK  175  A    between atoms: _423  and  _424
REMARK  176  A    between atoms: _426  and  _428
REMARK  177  A    between atoms: _428  and  _429
REMARK  178  A    between atoms: _428  and  _431
REMARK  179  A    between atoms: _431  and  _432
REMARK  180  A    between atoms: _435  and  _437
REMARK  181  A    between atoms: _437  and  _438
REMARK  182  A    between atoms: _437  and  _440
REMARK  183  A    between atoms: _440  and  _441
REMARK  184  A    between atoms: _444  and  _446
REMARK  185  A    between atoms: _446  and  _447
REMARK  186  A    between atoms: _446  and  _449
REMARK  187  A    between atoms: _449  and  _450
REMARK  188  A    between atoms: _453  and  _455
REMARK  189  A    between atoms: _455  and  _456
REMARK  190  A    between atoms: _455  and  _458
REMARK  191  A    between atoms: _458  and  _459
REMARK  192  A    between atoms: _464  and  _466
REMARK  193  A    between atoms: _466  and  _467
REMARK  194  A    between atoms: _466  and  _469
REMARK  195  A    between atoms: _469  and  _470
REMARK  196  A    between atoms: _470  and  _471
REMARK  197  A    between atoms: _471  and  _472
REMARK  198  A    between atoms: _481  and  _483
REMARK  199  A    between atoms: _483  and  _484
REMARK  200  A    between atoms: _483  and  _486
REMARK  201  A    between atoms: _486  and  _487
REMARK  202  A    between atoms: _490  and  _492
REMARK  203  A    between atoms: _492  and  _493
REMARK  204  A    between atoms: _492  and  _495
REMARK  205  A    between atoms: _495  and  _496
REMARK  206  A    between atoms: _499  and  _501
REMARK  207  A    between atoms: _501  and  _502
REMARK  208  A    between atoms: _501  and  _504
REMARK  209  A    between atoms: _504  and  _505
REMARK  210  A    between atoms: _507  and  _509
REMARK  211  A    between atoms: _509  and  _510
REMARK  212  A    between atoms: _509  and  _512
REMARK  213  A    between atoms: _512  and  _513
REMARK  214  A    between atoms: _518  and  _520
REMARK  215  A    between atoms: _520  and  _521
REMARK  216  A    between atoms: _524  and  _526
REMARK  217  A    between atoms: _526  and  _527
REMARK  218  A    between atoms: _526  and  _529
REMARK  219  A    between atoms: _529  and  _530
REMARK  220  A    between atoms: _530  and  _531
REMARK  221  A    between atoms: _531  and  _532
REMARK  222  A    between atoms: _532  and  _533
REMARK  223  A    between atoms: _537  and  _539
REMARK  224  A    between atoms: _539  and  _540
REMARK  225  A    between atoms: _539  and  _542
REMARK  226  A    between atoms: _542  and  _543
REMARK  227  A    between atoms: _546  and  _548
REMARK  228  A    between atoms: _548  and  _549
REMARK  229  A    between atoms: _548  and  _551
REMARK  230  A    between atoms: _551  and  _552
REMARK  231  A    between atoms: _555  and  _557
REMARK  232  A    between atoms: _557  and  _558
REMARK  233  A    between atoms: _557  and  _560
REMARK  234  A    between atoms: _560  and  _561
REMARK  235  A    between atoms: _564  and  _566
REMARK  236  A    between atoms: _566  and  _567
REMARK  237  A    between atoms: _566  and  _569
REMARK  238  A    between atoms: _569  and  _570
REMARK  239  A    between atoms: _576  and  _578
REMARK  240  A    between atoms: _578  and  _579
REMARK  241  A    between atoms: _581  and  _583
REMARK  242  A    between atoms: _583  and  _584
REMARK  243  A    between atoms: _583  and  _586
REMARK  244  A    between atoms: _586  and  _587
REMARK  245  A    between atoms: _590  and  _592
REMARK  246  A    between atoms: _592  and  _593
REMARK  247  A    between atoms: _596  and  _598
REMARK  248  A    between atoms: _598  and  _599
REMARK  249  A    between atoms: _598  and  _601
REMARK  250  A    between atoms: _601  and  _602
REMARK  251  A    between atoms: _607  and  _609
REMARK  252  A    between atoms: _609  and  _610
REMARK  253  A    between atoms: _609  and  _612
REMARK  254  A    between atoms: _612  and  _613
REMARK                            x       y       z     vdW  Elec       q    Type
REMARK                         _______ _______ _______ _____ _____    ______ ____
ROOT
ATOM      1  O   HOH     1       3.513   7.463  32.876  0.00  0.00    +0.000 OA
ENDROOT
TORSDOF 0
REMARK  Name = ../refined-set-2016/2baj/2baj_pocket.pdb
REMARK  254 active torsions:
REMARK  status: ('A' for Active; 'I' for Inactive)
REMARK    1  A    between atoms: _1  and  _3
REMARK    2  A    between atoms: _3  and  _4
REMARK    3  A    between atoms: _3  and  _6
REMARK    4  A    between atoms: _6  and  _7
REMARK    5  A    between atoms: _17  and  _19
REMARK    6  A    between atoms: _19  and  _20
REMARK    7  A    between atoms: _19  and  _22
REMARK    8  A    between atoms: _25  and  _27
REMARK    9  A    between atoms: _27  and  _28
REMARK   10  A    between atoms: _27  and  _30
REMARK   11  A    between atoms: _30  and  _31
REMARK   12  A    between atoms: _36  and  _37
REMARK   13  A    between atoms: _39  and  _41
REMARK   14  A    between atoms: _41  and  _42
REMARK   15  A    between atoms: _41  and  _44
REMARK   16  A    between atoms: _44  and  _45
REMARK   17  A    between atoms: _47  and  _49
REMARK   18  A    between atoms: _49  and  _50
REMARK   19  A    between atoms: _49  and  _52
REMARK   20  A    between atoms: _55  and  _57
REMARK   21  A    between atoms: _57  and  _58
REMARK   22  A    between atoms: _57  and  _60
REMARK   23  A    between atoms: _62  and  _64
REMARK   24  A    between atoms: _64  and  _65
REMARK   25  A    between atoms: _68  and  _70
REMARK   26  A    between atoms: _70  and  _71
REMARK   27  A    between atoms: _70  and  _73
REMARK   28  A    between atoms: _76  and  _78
REMARK   29  A    between atoms: _78  and  _79
REMARK   30  A    between atoms: _82  and  _84
REMARK   31  A    between atoms: _84  and  _85
REMARK   32  A    between atoms: _84  and  _87
REMARK   33  A    between atoms: _90  and  _92
REMARK   34  A    between atoms: _92  and  _93
REMARK   35  A    between atoms: _92  and  _95
REMARK   36  A    between atoms: _95  and  _96
REMARK   37  A    between atoms: _96  and  _97
REMARK   38  A    between atoms: _97  and  _98
REMARK   39  A    between atoms: _98  and  _99
REMARK   40  A    between atoms: _103  and  _105
REMARK   41  A    between atoms: _105  and  _106
REMARK   42  A    between atoms: _105  and  _108
REMARK   43  A    between atoms: _108  and  _109
REMARK   44  A    between atoms: _109  and  _110
REMARK   45  A    between atoms: _110  and  _111
REMARK   46  A    between atoms: _111  and  _112
REMARK   47  A    between atoms: _116  and  _118
REMARK   48  A    between atoms: _118  and  _119
REMARK   49  A    between atoms: _118  and  _121
REMARK   50  A    between atoms: _121  and  _122
REMARK   51  A    between atoms: _125  and  _127
REMARK   52  A    between atoms: _127  and  _128
REMARK   53  A    between atoms: _127  and  _130
REMARK   54  A    between atoms: _130  and  _131
REMARK   55  A    between atoms: _131  and  _132
REMARK   56  A    between atoms: _132  and  _133
REMARK   57  A    between atoms: _133  and  _134
REMARK   58  A    between atoms: _138  and  _140
REMARK   59  A    between atoms: _140  and  _141
REMARK   60  A    between atoms: _140  and  _143
REMARK   61  A    between atoms: _143  and  _144
REMARK   62  A    between atoms: _144  and  _145
REMARK   63  A    between atoms: _145  and  _146
REMARK   64  A    between atoms: _155  and  _157
REMARK   65  A    between atoms: _157  and  _158
REMARK   66  A    between atoms: _157  and  _160
REMARK   67  A    between atoms: _160  and  _161
REMARK   68  A    between atoms: _164  and  _166
REMARK   69  A    between atoms: _166  and  _167
REMARK   70  A    between atoms: _166  and  _169
REMARK   71  A    between atoms: _169  and  _170
REMARK   72  A    between atoms: _175  and  _176
REMARK   73  A    between atoms: _178  and  _180
REMARK   74  A    between atoms: _180  and  _181
REMARK   75  A    between atoms: _180  and  _183
REMARK   76  A    between atoms: _183  and  _184
REMARK   77  A    between atoms: _184  and  _185
REMARK   78  A    between atoms: _185  and  _186
REMARK   79  A    between atoms: _195  and  _197
REMARK   80  A    between atoms: _197  and  _198
REMARK   81  A    between atoms: _197  and  _200
REMARK   82  A    between atoms: _200  and  _201
REMARK   83  A    between atoms: _201  and  _202
REMARK   84  A    between atoms: _205  and  _207
REMARK   85  A    between atoms: _207  and  _208
REMARK   86  A    between atoms: _207  and  _210
REMARK   87  A    between atoms: _210  and  _211
REMARK   88  A    between atoms: _214  and  _216
REMARK   89  A    between atoms: _216  and  _217
REMARK   90  A    between atoms: _216  and  _219
REMARK   91  A    between atoms: _219  and  _220
REMARK   92  A    between atoms: _220  and  _221
REMARK   93  A    between atoms: _221  and  _222
REMARK   94  A    between atoms: _231  and  _233
REMARK   95  A    between atoms: _233  and  _234
REMARK   96  A    between atoms: _233  and  _236
REMARK   97  A    between atoms: _236  and  _237
REMARK   98  A    between atoms: _240  and  _242
REMARK   99  A    between atoms: _242  and  _243
REMARK  100  A    between atoms: _242  and  _245
REMARK  101  A    between atoms: _245  and  _246
REMARK  102  A    between atoms: _249  and  _251
REMARK  103  A    between atoms: _251  and  _252
REMARK  104  A    between atoms: _251  and  _254
REMARK  105  A    between atoms: _254  and  _255
REMARK  106  A    between atoms: _260  and  _262
REMARK  107  A    between atoms: _262  and  _263
REMARK  108  A    between atoms: _262  and  _265
REMARK  109  A    between atoms: _265  and  _266
REMARK  110  A    between atoms: _266  and  _267
REMARK  111  A    between atoms: _269  and  _271
REMARK  112  A    between atoms: _271  and  _272
REMARK  113  A    between atoms: _271  and  _274
REMARK  114  A    between atoms: _274  and  _275
REMARK  115  A    between atoms: _280  and  _282
REMARK  116  A    between atoms: _282  and  _283
REMARK  117  A    between atoms: _282  and  _285
REMARK  118  A    between atoms: _288  and  _290
REMARK  119  A    between atoms: _290  and  _291
REMARK  120  A    between atoms: _290  and  _293
REMARK  121  A    between atoms: _293  and  _294
REMARK  122  A    between atoms: _297  and  _299
REMARK  123  A    between atoms: _299  and  _300
REMARK  124  A    between atoms: _302  and  _304
REMARK  125  A    between atoms: _304  and  _305
REMARK  126  A    between atoms: _304  and  _307
REMARK  127  A    between atoms: _307  and  _308
REMARK  128  A    between atoms: _311  and  _313
REMARK  129  A    between atoms: _313  and  _314
REMARK  130  A    between atoms: _313  and  _316
REMARK  131  A    between atoms: _316  and  _317
REMARK  132  A    between atoms: _320  and  _322
REMARK  133  A    between atoms: _322  and  _323
REMARK  134  A    between atoms: _322  and  _325
REMARK  135  A    between atoms: _325  and  _326
REMARK  136  A    between atoms: _329  and  _331
REMARK  137  A    between atoms: _331  and  _332
REMARK  138  A    between atoms: _331  and  _334
REMARK  139  A    between atoms: _334  and  _335
REMARK  140  A    between atoms: _340  and  _341
REMARK  141  A    between atoms: _343  and  _345
REMARK  142  A    between atoms: _345  and  _346
REMARK  143  A    between atoms: _345  and  _348
REMARK  144  A    between atoms: _348  and  _349
REMARK  145  A    between atoms: _352  and  _354
REMARK  146  A    between atoms: _354  and  _355
REMARK  147  A    between atoms: _354  and  _357
REMARK  148  A    between atoms: _360  and  _362
REMARK  149  A    between atoms: _362  and  _363
REMARK  150  A    between atoms: _362  and  _365
REMARK  151  A    between atoms: _365  and  _366
REMARK  152  A    between atoms: _369  and  _371
REMARK  153  A    between atoms: _371  and  _372
REMARK  154  A    between atoms: _371  and  _374
REMARK  155  A    between atoms: _374  and  _375
REMARK  156  A    between atoms: _380  and  _382
REMARK  157  A    between atoms: _382  and  _383
REMARK  158  A    between atoms: _382  and  _385
REMARK  159  A    between atoms: _385  and  _386
REMARK  160  A    between atoms: _389  and  _391
REMARK  161  A    between atoms: _391  and  _392
REMARK  162  A    between atoms: _391  and  _394
REMARK  163  A    between atoms: _394  and  _395
REMARK  164  A    between atoms: _395  and  _396
REMARK  165  A    between atoms: _398  and  _400
REMARK  166  A    between atoms: _400  and  _401
REMARK  167  A    between atoms: _403  and  _405
REMARK  168  A    between atoms: _405  and  _406
REMARK  169  A    between atoms: _405  and  _408
REMARK  170  A    between atoms: _408  and  _409
REMARK  171  A    between atoms: _412  and  _414
REMARK  172  A    between atoms: _414  and  _415
REMARK  173  A    between atoms: _414  and  _417
REMARK  174  A    between atoms: _417  and  _418
REMARK  175  A    between atoms: _423  and  _424
REMARK  176  A    between atoms: _426  and  _428
REMARK  177  A    between atoms: _428  and  _429
REMARK  178  A    between atoms: _428  and  _431
REMARK  179  A    between atoms: _431  and  _432
REMARK  180  A    between atoms: _435  and  _437
REMARK  181  A    between atoms: _437  and  _438
REMARK  182  A    between atoms: _437  and  _440
REMARK  183  A    between atoms: _440  and  _441
REMARK  184  A    between atoms: _444  and  _446
REMARK  185  A    between atoms: _446  and  _447
REMARK  186  A    between atoms: _446  and  _449
REMARK  187  A    between atoms: _449  and  _450
REMARK  188  A    between atoms: _453  and  _455
REMARK  189  A    between atoms: _455  and  _456
REMARK  190  A    between atoms: _455  and  _458
REMARK  191  A    between atoms: _458  and  _459
REMARK  192  A    between atoms: _464  and  _466
REMARK  193  A    between atoms: _466  and  _467
REMARK  194  A    between atoms: _466  and  _469
REMARK  195  A    between atoms: _469  and  _470
REMARK  196  A    between atoms: _470  and  _471
REMARK  197  A    between atoms: _471  and  _472
REMARK  198  A    between atoms: _481  and  _483
REMARK  199  A    between atoms: _483  and  _484
REMARK  200  A    between atoms: _483  and  _486
REMARK  201  A    between atoms: _486  and  _487
REMARK  202  A    between atoms: _490  and  _492
REMARK  203  A    between atoms: _492  and  _493
REMARK  204  A    between atoms: _492  and  _495
REMARK  205  A    between atoms: _495  and  _496
REMARK  206  A    between atoms: _499  and  _501
REMARK  207  A    between atoms: _501  and  _502
REMARK  208  A    between atoms: _501  and  _504
REMARK  209  A    between atoms: _504  and  _505
REMARK  210  A    between atoms: _507  and  _509
REMARK  211  A    between atoms: _509  and  _510
REMARK  212  A    between atoms: _509  and  _512
REMARK  213  A    between atoms: _512  and  _513
REMARK  214  A    between atoms: _518  and  _520
REMARK  215  A    between atoms: _520  and  _521
REMARK  216  A    between atoms: _524  and  _526
REMARK  217  A    between atoms: _526  and  _527
REMARK  218  A    between atoms: _526  and  _529
REMARK  219  A    between atoms: _529  and  _530
REMARK  220  A    between atoms: _530  and  _531
REMARK  221  A    between atoms: _531  and  _532
REMARK  222  A    between atoms: _532  and  _533
REMARK  223  A    between atoms: _537  and  _539
REMARK  224  A    between atoms: _539  and  _540
REMARK  225  A    between atoms: _539  and  _542
REMARK  226  A    between atoms: _542  and  _543
REMARK  227  A    between atoms: _546  and  _548
REMARK  228  A    between atoms: _548  and  _549
REMARK  229  A    between atoms: _548  and  _551
REMARK  230  A    between atoms: _551  and  _552
REMARK  231  A    between atoms: _555  and  _557
REMARK  232  A    between atoms: _557  and  _558
REMARK  233  A    between atoms: _557  and  _560
REMARK  234  A    between atoms: _560  and  _561
REMARK  235  A    between atoms: _564  and  _566
REMARK  236  A    between atoms: _566  and  _567
REMARK  237  A    between atoms: _566  and  _569
REMARK  238  A    between atoms: _569  and  _570
REMARK  239  A    between atoms: _576  and  _578
REMARK  240  A    between atoms: _578  and  _579
REMARK  241  A    between atoms: _581  and  _583
REMARK  242  A    between atoms: _583  and  _584
REMARK  243  A    between atoms: _583  and  _586
REMARK  244  A    between atoms: _586  and  _587
REMARK  245  A    between atoms: _590  and  _592
REMARK  246  A    between atoms: _592  and  _593
REMARK  247  A    between atoms: _596  and  _598
REMARK  248  A    between atoms: _598  and  _599
REMARK  249  A    between atoms: _598  and  _601
REMARK  250  A    between atoms: _601  and  _602
REMARK  251  A    between atoms: _607  and  _609
REMARK  252  A    between atoms: _609  and  _610
REMARK  253  A    between atoms: _609  and  _612
REMARK  254  A    between atoms: _612  and  _613
REMARK                            x       y       z     vdW  Elec       q    Type
REMARK                         _______ _______ _______ _____ _____    ______ ____
ROOT
ATOM      1  O   HOH     1      20.210   3.916  32.364  0.00  0.00    +0.000 OA
ENDROOT
TORSDOF 0
REMARK  Name = ../refined-set-2016/2baj/2baj_pocket.pdb
REMARK  254 active torsions:
REMARK  status: ('A' for Active; 'I' for Inactive)
REMARK    1  A    between atoms: _1  and  _3
REMARK    2  A    between atoms: _3  and  _4
REMARK    3  A    between atoms: _3  and  _6
REMARK    4  A    between atoms: _6  and  _7
REMARK    5  A    between atoms: _17  and  _19
REMARK    6  A    between atoms: _19  and  _20
REMARK    7  A    between atoms: _19  and  _22
REMARK    8  A    between atoms: _25  and  _27
REMARK    9  A    between atoms: _27  and  _28
REMARK   10  A    between atoms: _27  and  _30
REMARK   11  A    between atoms: _30  and  _31
REMARK   12  A    between atoms: _36  and  _37
REMARK   13  A    between atoms: _39  and  _41
REMARK   14  A    between atoms: _41  and  _42
REMARK   15  A    between atoms: _41  and  _44
REMARK   16  A    between atoms: _44  and  _45
REMARK   17  A    between atoms: _47  and  _49
REMARK   18  A    between atoms: _49  and  _50
REMARK   19  A    between atoms: _49  and  _52
REMARK   20  A    between atoms: _55  and  _57
REMARK   21  A    between atoms: _57  and  _58
REMARK   22  A    between atoms: _57  and  _60
REMARK   23  A    between atoms: _62  and  _64
REMARK   24  A    between atoms: _64  and  _65
REMARK   25  A    between atoms: _68  and  _70
REMARK   26  A    between atoms: _70  and  _71
REMARK   27  A    between atoms: _70  and  _73
REMARK   28  A    between atoms: _76  and  _78
REMARK   29  A    between atoms: _78  and  _79
REMARK   30  A    between atoms: _82  and  _84
REMARK   31  A    between atoms: _84  and  _85
REMARK   32  A    between atoms: _84  and  _87
REMARK   33  A    between atoms: _90  and  _92
REMARK   34  A    between atoms: _92  and  _93
REMARK   35  A    between atoms: _92  and  _95
REMARK   36  A    between atoms: _95  and  _96
REMARK   37  A    between atoms: _96  and  _97
REMARK   38  A    between atoms: _97  and  _98
REMARK   39  A    between atoms: _98  and  _99
REMARK   40  A    between atoms: _103  and  _105
REMARK   41  A    between atoms: _105  and  _106
REMARK   42  A    between atoms: _105  and  _108
REMARK   43  A    between atoms: _108  and  _109
REMARK   44  A    between atoms: _109  and  _110
REMARK   45  A    between atoms: _110  and  _111
REMARK   46  A    between atoms: _111  and  _112
REMARK   47  A    between atoms: _116  and  _118
REMARK   48  A    between atoms: _118  and  _119
REMARK   49  A    between atoms: _118  and  _121
REMARK   50  A    between atoms: _121  and  _122
REMARK   51  A    between atoms: _125  and  _127
REMARK   52  A    between atoms: _127  and  _128
REMARK   53  A    between atoms: _127  and  _130
REMARK   54  A    between atoms: _130  and  _131
REMARK   55  A    between atoms: _131  and  _132
REMARK   56  A    between atoms: _132  and  _133
REMARK   57  A    between atoms: _133  and  _134
REMARK   58  A    between atoms: _138  and  _140
REMARK   59  A    between atoms: _140  and  _141
REMARK   60  A    between atoms: _140  and  _143
REMARK   61  A    between atoms: _143  and  _144
REMARK   62  A    between atoms: _144  and  _145
REMARK   63  A    between atoms: _145  and  _146
REMARK   64  A    between atoms: _155  and  _157
REMARK   65  A    between atoms: _157  and  _158
REMARK   66  A    between atoms: _157  and  _160
REMARK   67  A    between atoms: _160  and  _161
REMARK   68  A    between atoms: _164  and  _166
REMARK   69  A    between atoms: _166  and  _167
REMARK   70  A    between atoms: _166  and  _169
REMARK   71  A    between atoms: _169  and  _170
REMARK   72  A    between atoms: _175  and  _176
REMARK   73  A    between atoms: _178  and  _180
REMARK   74  A    between atoms: _180  and  _181
REMARK   75  A    between atoms: _180  and  _183
REMARK   76  A    between atoms: _183  and  _184
REMARK   77  A    between atoms: _184  and  _185
REMARK   78  A    between atoms: _185  and  _186
REMARK   79  A    between atoms: _195  and  _197
REMARK   80  A    between atoms: _197  and  _198
REMARK   81  A    between atoms: _197  and  _200
REMARK   82  A    between atoms: _200  and  _201
REMARK   83  A    between atoms: _201  and  _202
REMARK   84  A    between atoms: _205  and  _207
REMARK   85  A    between atoms: _207  and  _208
REMARK   86  A    between atoms: _207  and  _210
REMARK   87  A    between atoms: _210  and  _211
REMARK   88  A    between atoms: _214  and  _216
REMARK   89  A    between atoms: _216  and  _217
REMARK   90  A    between atoms: _216  and  _219
REMARK   91  A    between atoms: _219  and  _220
REMARK   92  A    between atoms: _220  and  _221
REMARK   93  A    between atoms: _221  and  _222
REMARK   94  A    between atoms: _231  and  _233
REMARK   95  A    between atoms: _233  and  _234
REMARK   96  A    between atoms: _233  and  _236
REMARK   97  A    between atoms: _236  and  _237
REMARK   98  A    between atoms: _240  and  _242
REMARK   99  A    between atoms: _242  and  _243
REMARK  100  A    between atoms: _242  and  _245
REMARK  101  A    between atoms: _245  and  _246
REMARK  102  A    between atoms: _249  and  _251
REMARK  103  A    between atoms: _251  and  _252
REMARK  104  A    between atoms: _251  and  _254
REMARK  105  A    between atoms: _254  and  _255
REMARK  106  A    between atoms: _260  and  _262
REMARK  107  A    between atoms: _262  and  _263
REMARK  108  A    between atoms: _262  and  _265
REMARK  109  A    between atoms: _265  and  _266
REMARK  110  A    between atoms: _266  and  _267
REMARK  111  A    between atoms: _269  and  _271
REMARK  112  A    between atoms: _271  and  _272
REMARK  113  A    between atoms: _271  and  _274
REMARK  114  A    between atoms: _274  and  _275
REMARK  115  A    between atoms: _280  and  _282
REMARK  116  A    between atoms: _282  and  _283
REMARK  117  A    between atoms: _282  and  _285
REMARK  118  A    between atoms: _288  and  _290
REMARK  119  A    between atoms: _290  and  _291
REMARK  120  A    between atoms: _290  and  _293
REMARK  121  A    between atoms: _293  and  _294
REMARK  122  A    between atoms: _297  and  _299
REMARK  123  A    between atoms: _299  and  _300
REMARK  124  A    between atoms: _302  and  _304
REMARK  125  A    between atoms: _304  and  _305
REMARK  126  A    between atoms: _304  and  _307
REMARK  127  A    between atoms: _307  and  _308
REMARK  128  A    between atoms: _311  and  _313
REMARK  129  A    between atoms: _313  and  _314
REMARK  130  A    between atoms: _313  and  _316
REMARK  131  A    between atoms: _316  and  _317
REMARK  132  A    between atoms: _320  and  _322
REMARK  133  A    between atoms: _322  and  _323
REMARK  134  A    between atoms: _322  and  _325
REMARK  135  A    between atoms: _325  and  _326
REMARK  136  A    between atoms: _329  and  _331
REMARK  137  A    between atoms: _331  and  _332
REMARK  138  A    between atoms: _331  and  _334
REMARK  139  A    between atoms: _334  and  _335
REMARK  140  A    between atoms: _340  and  _341
REMARK  141  A    between atoms: _343  and  _345
REMARK  142  A    between atoms: _345  and  _346
REMARK  143  A    between atoms: _345  and  _348
REMARK  144  A    between atoms: _348  and  _349
REMARK  145  A    between atoms: _352  and  _354
REMARK  146  A    between atoms: _354  and  _355
REMARK  147  A    between atoms: _354  and  _357
REMARK  148  A    between atoms: _360  and  _362
REMARK  149  A    between atoms: _362  and  _363
REMARK  150  A    between atoms: _362  and  _365
REMARK  151  A    between atoms: _365  and  _366
REMARK  152  A    between atoms: _369  and  _371
REMARK  153  A    between atoms: _371  and  _372
REMARK  154  A    between atoms: _371  and  _374
REMARK  155  A    between atoms: _374  and  _375
REMARK  156  A    between atoms: _380  and  _382
REMARK  157  A    between atoms: _382  and  _383
REMARK  158  A    between atoms: _382  and  _385
REMARK  159  A    between atoms: _385  and  _386
REMARK  160  A    between atoms: _389  and  _391
REMARK  161  A    between atoms: _391  and  _392
REMARK  162  A    between atoms: _391  and  _394
REMARK  163  A    between atoms: _394  and  _395
REMARK  164  A    between atoms: _395  and  _396
REMARK  165  A    between atoms: _398  and  _400
REMARK  166  A    between atoms: _400  and  _401
REMARK  167  A    between atoms: _403  and  _405
REMARK  168  A    between atoms: _405  and  _406
REMARK  169  A    between atoms: _405  and  _408
REMARK  170  A    between atoms: _408  and  _409
REMARK  171  A    between atoms: _412  and  _414
REMARK  172  A    between atoms: _414  and  _415
REMARK  173  A    between atoms: _414  and  _417
REMARK  174  A    between atoms: _417  and  _418
REMARK  175  A    between atoms: _423  and  _424
REMARK  176  A    between atoms: _426  and  _428
REMARK  177  A    between atoms: _428  and  _429
REMARK  178  A    between atoms: _428  and  _431
REMARK  179  A    between atoms: _431  and  _432
REMARK  180  A    between atoms: _435  and  _437
REMARK  181  A    between atoms: _437  and  _438
REMARK  182  A    between atoms: _437  and  _440
REMARK  183  A    between atoms: _440  and  _441
REMARK  184  A    between atoms: _444  and  _446
REMARK  185  A    between atoms: _446  and  _447
REMARK  186  A    between atoms: _446  and  _449
REMARK  187  A    between atoms: _449  and  _450
REMARK  188  A    between atoms: _453  and  _455
REMARK  189  A    between atoms: _455  and  _456
REMARK  190  A    between atoms: _455  and  _458
REMARK  191  A    between atoms: _458  and  _459
REMARK  192  A    between atoms: _464  and  _466
REMARK  193  A    between atoms: _466  and  _467
REMARK  194  A    between atoms: _466  and  _469
REMARK  195  A    between atoms: _469  and  _470
REMARK  196  A    between atoms: _470  and  _471
REMARK  197  A    between atoms: _471  and  _472
REMARK  198  A    between atoms: _481  and  _483
REMARK  199  A    between atoms: _483  and  _484
REMARK  200  A    between atoms: _483  and  _486
REMARK  201  A    between atoms: _486  and  _487
REMARK  202  A    between atoms: _490  and  _492
REMARK  203  A    between atoms: _492  and  _493
REMARK  204  A    between atoms: _492  and  _495
REMARK  205  A    between atoms: _495  and  _496
REMARK  206  A    between atoms: _499  and  _501
REMARK  207  A    between atoms: _501  and  _502
REMARK  208  A    between atoms: _501  and  _504
REMARK  209  A    between atoms: _504  and  _505
REMARK  210  A    between atoms: _507  and  _509
REMARK  211  A    between atoms: _509  and  _510
REMARK  212  A    between atoms: _509  and  _512
REMARK  213  A    between atoms: _512  and  _513
REMARK  214  A    between atoms: _518  and  _520
REMARK  215  A    between atoms: _520  and  _521
REMARK  216  A    between atoms: _524  and  _526
REMARK  217  A    between atoms: _526  and  _527
REMARK  218  A    between atoms: _526  and  _529
REMARK  219  A    between atoms: _529  and  _530
REMARK  220  A    between atoms: _530  and  _531
REMARK  221  A    between atoms: _531  and  _532
REMARK  222  A    between atoms: _532  and  _533
REMARK  223  A    between atoms: _537  and  _539
REMARK  224  A    between atoms: _539  and  _540
REMARK  225  A    between atoms: _539  and  _542
REMARK  226  A    between atoms: _542  and  _543
REMARK  227  A    between atoms: _546  and  _548
REMARK  228  A    between atoms: _548  and  _549
REMARK  229  A    between atoms: _548  and  _551
REMARK  230  A    between atoms: _551  and  _552
REMARK  231  A    between atoms: _555  and  _557
REMARK  232  A    between atoms: _557  and  _558
REMARK  233  A    between atoms: _557  and  _560
REMARK  234  A    between atoms: _560  and  _561
REMARK  235  A    between atoms: _564  and  _566
REMARK  236  A    between atoms: _566  and  _567
REMARK  237  A    between atoms: _566  and  _569
REMARK  238  A    between atoms: _569  and  _570
REMARK  239  A    between atoms: _576  and  _578
REMARK  240  A    between atoms: _578  and  _579
REMARK  241  A    between atoms: _581  and  _583
REMARK  242  A    between atoms: _583  and  _584
REMARK  243  A    between atoms: _583  and  _586
REMARK  244  A    between atoms: _586  and  _587
REMARK  245  A    between atoms: _590  and  _592
REMARK  246  A    between atoms: _592  and  _593
REMARK  247  A    between atoms: _596  and  _598
REMARK  248  A    between atoms: _598  and  _599
REMARK  249  A    between atoms: _598  and  _601
REMARK  250  A    between atoms: _601  and  _602
REMARK  251  A    between atoms: _607  and  _609
REMARK  252  A    between atoms: _609  and  _610
REMARK  253  A    between atoms: _609  and  _612
REMARK  254  A    between atoms: _612  and  _613
REMARK                            x       y       z     vdW  Elec       q    Type
REMARK                         _______ _______ _______ _____ _____    ______ ____
ROOT
ATOM      1  O   HOH     1       8.834   3.143  35.595  0.00  0.00    +0.000 OA
ENDROOT
TORSDOF 0
