REMARK  Name = ../refined-set-2016/4pcs/4pcs_pocket.pdb
REMARK  140 active torsions:
REMARK  status: ('A' for Active; 'I' for Inactive)
REMARK    1  A    between atoms: _1  and  _3
REMARK    2  A    between atoms: _3  and  _4
REMARK    3  A    between atoms: _3  and  _6
REMARK    4  A    between atoms: _6  and  _7
REMARK    5  A    between atoms: _13  and  _15
REMARK    6  A    between atoms: _15  and  _16
REMARK    7  A    between atoms: _15  and  _18
REMARK    8  A    between atoms: _18  and  _19
REMARK    9  A    between atoms: _22  and  _24
REMARK   10  A    between atoms: _24  and  _25
REMARK   11  A    between atoms: _24  and  _27
REMARK   12  A    between atoms: _27  and  _28
REMARK   13  A    between atoms: _33  and  _35
REMARK   14  A    between atoms: _35  and  _36
REMARK   15  A    between atoms: _35  and  _38
REMARK   16  A    between atoms: _38  and  _39
REMARK   17  A    between atoms: _44  and  _45
REMARK   18  A    between atoms: _47  and  _49
REMARK   19  A    between atoms: _49  and  _50
REMARK   20  A    between atoms: _53  and  _55
REMARK   21  A    between atoms: _55  and  _56
REMARK   22  A    between atoms: _59  and  _61
REMARK   23  A    between atoms: _61  and  _62
REMARK   24  A    between atoms: _61  and  _64
REMARK   25  A    between atoms: _64  and  _65
REMARK   26  A    between atoms: _65  and  _66
REMARK   27  A    between atoms: _69  and  _71
REMARK   28  A    between atoms: _71  and  _72
REMARK   29  A    between atoms: _71  and  _74
REMARK   30  A    between atoms: _74  and  _75
REMARK   31  A    between atoms: _85  and  _87
REMARK   32  A    between atoms: _87  and  _88
REMARK   33  A    between atoms: _87  and  _90
REMARK   34  A    between atoms: _90  and  _91
REMARK   35  A    between atoms: _93  and  _95
REMARK   36  A    between atoms: _95  and  _96
REMARK   37  A    between atoms: _95  and  _98
REMARK   38  A    between atoms: _98  and  _99
REMARK   39  A    between atoms: _109  and  _111
REMARK   40  A    between atoms: _111  and  _112
REMARK   41  A    between atoms: _111  and  _114
REMARK   42  A    between atoms: _114  and  _115
REMARK   43  A    between atoms: _118  and  _120
REMARK   44  A    between atoms: _120  and  _121
REMARK   45  A    between atoms: _120  and  _123
REMARK   46  A    between atoms: _123  and  _124
REMARK   47  A    between atoms: _124  and  _125
REMARK   48  A    between atoms: _125  and  _126
REMARK   49  A    between atoms: _126  and  _127
REMARK   50  A    between atoms: _131  and  _133
REMARK   51  A    between atoms: _133  and  _134
REMARK   52  A    between atoms: _133  and  _136
REMARK   53  A    between atoms: _136  and  _137
REMARK   54  A    between atoms: _142  and  _144
REMARK   55  A    between atoms: _144  and  _145
REMARK   56  A    between atoms: _144  and  _147
REMARK   57  A    between atoms: _147  and  _148
REMARK   58  A    between atoms: _153  and  _155
REMARK   59  A    between atoms: _155  and  _156
REMARK   60  A    between atoms: _155  and  _158
REMARK   61  A    between atoms: _158  and  _159
REMARK   62  A    between atoms: _164  and  _165
REMARK   63  A    between atoms: _167  and  _169
REMARK   64  A    between atoms: _169  and  _170
REMARK   65  A    between atoms: _169  and  _172
REMARK   66  A    between atoms: _172  and  _173
REMARK   67  A    between atoms: _175  and  _177
REMARK   68  A    between atoms: _177  and  _178
REMARK   69  A    between atoms: _177  and  _180
REMARK   70  A    between atoms: _181  and  _182
REMARK   71  A    between atoms: _184  and  _186
REMARK   72  A    between atoms: _186  and  _187
REMARK   73  A    between atoms: _186  and  _189
REMARK   74  A    between atoms: _189  and  _190
REMARK   75  A    between atoms: _200  and  _202
REMARK   76  A    between atoms: _202  and  _203
REMARK   77  A    between atoms: _202  and  _205
REMARK   78  A    between atoms: _205  and  _206
REMARK   79  A    between atoms: _216  and  _218
REMARK   80  A    between atoms: _218  and  _219
REMARK   81  A    between atoms: _218  and  _221
REMARK   82  A    between atoms: _221  and  _222
REMARK   83  A    between atoms: _228  and  _230
REMARK   84  A    between atoms: _230  and  _231
REMARK   85  A    between atoms: _230  and  _233
REMARK   86  A    between atoms: _233  and  _234
REMARK   87  A    between atoms: _237  and  _239
REMARK   88  A    between atoms: _239  and  _240
REMARK   89  A    between atoms: _242  and  _244
REMARK   90  A    between atoms: _244  and  _245
REMARK   91  A    between atoms: _244  and  _247
REMARK   92  A    between atoms: _247  and  _248
REMARK   93  A    between atoms: _258  and  _260
REMARK   94  A    between atoms: _260  and  _261
REMARK   95  A    between atoms: _260  and  _263
REMARK   96  A    between atoms: _263  and  _264
REMARK   97  A    between atoms: _264  and  _265
REMARK   98  A    between atoms: _265  and  _266
REMARK   99  A    between atoms: _275  and  _277
REMARK  100  A    between atoms: _277  and  _278
REMARK  101  A    between atoms: _277  and  _280
REMARK  102  A    between atoms: _280  and  _281
REMARK  103  A    between atoms: _281  and  _282
REMARK  104  A    between atoms: _285  and  _287
REMARK  105  A    between atoms: _287  and  _288
REMARK  106  A    between atoms: _287  and  _290
REMARK  107  A    between atoms: _290  and  _291
REMARK  108  A    between atoms: _291  and  _292
REMARK  109  A    between atoms: _292  and  _293
REMARK  110  A    between atoms: _302  and  _304
REMARK  111  A    between atoms: _304  and  _305
REMARK  112  A    between atoms: _304  and  _307
REMARK  113  A    between atoms: _309  and  _311
REMARK  114  A    between atoms: _311  and  _312
REMARK  115  A    between atoms: _311  and  _314
REMARK  116  A    between atoms: _314  and  _315
REMARK  117  A    between atoms: _315  and  _316
REMARK  118  A    between atoms: _318  and  _320
REMARK  119  A    between atoms: _320  and  _321
REMARK  120  A    between atoms: _320  and  _323
REMARK  121  A    between atoms: _323  and  _324
REMARK  122  A    between atoms: _327  and  _329
REMARK  123  A    between atoms: _329  and  _330
REMARK  124  A    between atoms: _329  and  _332
REMARK  125  A    between atoms: _332  and  _333
REMARK  126  A    between atoms: _338  and  _340
REMARK  127  A    between atoms: _340  and  _341
REMARK  128  A    between atoms: _340  and  _343
REMARK  129  A    between atoms: _343  and  _344
REMARK  130  A    between atoms: _344  and  _345
REMARK  131  A    between atoms: _350  and  _352
REMARK  132  A    between atoms: _352  and  _353
REMARK  133  A    between atoms: _352  and  _355
REMARK  134  A    between atoms: _355  and  _356
REMARK  135  A    between atoms: _366  and  _368
REMARK  136  A    between atoms: _368  and  _369
REMARK  137  A    between atoms: _371  and  _373
REMARK  138  A    between atoms: _373  and  _374
REMARK  139  A    between atoms: _373  and  _376
REMARK  140  A    between atoms: _376  and  _377
REMARK                            x       y       z     vdW  Elec       q    Type
REMARK                         _______ _______ _______ _____ _____    ______ ____
ROOT
ATOM      1  CA  ILE A   2      24.940  -1.986  49.417  0.00  0.00    +0.148 C 
ENDROOT
BRANCH   1   4
ATOM      2  C   PHE A   1      23.323  -1.806  51.293  0.00  0.00    +0.239 C 
ATOM      3  O   PHE A   1      23.566  -2.928  51.726  0.00  0.00    -0.274 OA
ATOM      4  N   ILE A   2      23.853  -1.315  50.174  0.00  0.00    -0.297 N 
ATOM      5  H   ILE A   2      23.485  -0.412  49.811  0.00  0.00    +0.150 HD
BRANCH   2   6
ATOM      6  CA  PHE A   1      22.382  -0.913  52.056  0.00  0.00    +0.149 C 
BRANCH   6   7
ATOM      7  N   PHE A   1      21.364  -1.840  52.523  0.00  0.00    -0.238 NA
ATOM      8  H   PHE A   1      21.625  -2.544  53.242  0.00  0.00    +0.142 HD
ENDBRANCH   6   7
BRANCH   6   9
ATOM      9  CB  PHE A   1      23.192  -0.300  53.206  0.00  0.00    +0.053 C 
BRANCH   9  10
ATOM     10  CG  PHE A   1      23.411   1.191  53.102  0.00  0.00    -0.020 A 
ATOM     11  CD2 PHE A   1      23.025   2.019  54.125  0.00  0.00    -0.004 A 
ATOM     12  CE2 PHE A   1      23.202   3.402  54.063  0.00  0.00    -0.000 A 
ATOM     13  CZ  PHE A   1      23.723   3.980  52.912  0.00  0.00    -0.000 A 
ATOM     14  CE1 PHE A   1      24.112   3.150  51.866  0.00  0.00    -0.000 A 
ATOM     15  CD1 PHE A   1      23.955   1.757  51.970  0.00  0.00    -0.004 A 
ENDBRANCH   9  10
ENDBRANCH   6   9
ENDBRANCH   2   6
ENDBRANCH   1   4
BRANCH   1  16
ATOM     16  C   ILE A   2      26.135  -1.051  49.325  0.00  0.00    +0.241 C 
ATOM     17  N   HIS A   3      27.270  -1.501  49.850  0.00  0.00    -0.298 N 
ATOM     18  H   HIS A   3      27.250  -2.388  50.392  0.00  0.00    +0.150 HD
ATOM     19  O   ILE A   2      25.997   0.045  48.787  0.00  0.00    -0.273 OA
BRANCH  17  20
ATOM     20  CA  HIS A   3      28.537  -0.808  49.700  0.00  0.00    +0.143 C 
BRANCH  20  21
ATOM     21  C   HIS A   3      29.387  -1.687  48.791  0.00  0.00    +0.227 C 
ATOM     22  O   HIS A   3      29.885  -2.737  49.187  0.00  0.00    -0.286 OA
ENDBRANCH  20  21
BRANCH  20  23
ATOM     23  CB  HIS A   3      29.279  -0.576  51.050  0.00  0.00    +0.075 C 
BRANCH  23  24
ATOM     24  CG  HIS A   3      28.861   0.654  51.782  0.00  0.00    +0.082 A 
ATOM     25  ND1 HIS A   3      27.629   0.772  52.376  0.00  0.00    -0.227 NA
ATOM     26  CE1 HIS A   3      27.512   1.971  52.932  0.00  0.00    +0.199 A 
ATOM     27  NE2 HIS A   3      28.609   2.658  52.658  0.00  0.00    -0.221 NA
ATOM     28  CD2 HIS A   3      29.487   1.840  51.980  0.00  0.00    +0.115 A 
ENDBRANCH  23  24
ENDBRANCH  20  23
ENDBRANCH  17  20
ENDBRANCH   1  16
BRANCH   1  29
ATOM     29  CB  ILE A   2      24.494  -2.284  47.959  0.00  0.00    +0.027 C 
ATOM     30  CG2 ILE A   2      25.673  -2.745  47.112  0.00  0.00    +0.002 C 
BRANCH  29  31
ATOM     31  CG1 ILE A   2      23.367  -3.338  47.949  0.00  0.00    +0.002 C 
ATOM     32  CD1 ILE A   2      23.821  -4.743  48.321  0.00  0.00    +0.000 C 
ENDBRANCH  29  31
ENDBRANCH   1  29
TORSDOF 12
REMARK  Name = ../refined-set-2016/4pcs/4pcs_pocket.pdb
REMARK  140 active torsions:
REMARK  status: ('A' for Active; 'I' for Inactive)
REMARK    1  A    between atoms: _1  and  _3
REMARK    2  A    between atoms: _3  and  _4
REMARK    3  A    between atoms: _3  and  _6
REMARK    4  A    between atoms: _6  and  _7
REMARK    5  A    between atoms: _13  and  _15
REMARK    6  A    between atoms: _15  and  _16
REMARK    7  A    between atoms: _15  and  _18
REMARK    8  A    between atoms: _18  and  _19
REMARK    9  A    between atoms: _22  and  _24
REMARK   10  A    between atoms: _24  and  _25
REMARK   11  A    between atoms: _24  and  _27
REMARK   12  A    between atoms: _27  and  _28
REMARK   13  A    between atoms: _33  and  _35
REMARK   14  A    between atoms: _35  and  _36
REMARK   15  A    between atoms: _35  and  _38
REMARK   16  A    between atoms: _38  and  _39
REMARK   17  A    between atoms: _44  and  _45
REMARK   18  A    between atoms: _47  and  _49
REMARK   19  A    between atoms: _49  and  _50
REMARK   20  A    between atoms: _53  and  _55
REMARK   21  A    between atoms: _55  and  _56
REMARK   22  A    between atoms: _59  and  _61
REMARK   23  A    between atoms: _61  and  _62
REMARK   24  A    between atoms: _61  and  _64
REMARK   25  A    between atoms: _64  and  _65
REMARK   26  A    between atoms: _65  and  _66
REMARK   27  A    between atoms: _69  and  _71
REMARK   28  A    between atoms: _71  and  _72
REMARK   29  A    between atoms: _71  and  _74
REMARK   30  A    between atoms: _74  and  _75
REMARK   31  A    between atoms: _85  and  _87
REMARK   32  A    between atoms: _87  and  _88
REMARK   33  A    between atoms: _87  and  _90
REMARK   34  A    between atoms: _90  and  _91
REMARK   35  A    between atoms: _93  and  _95
REMARK   36  A    between atoms: _95  and  _96
REMARK   37  A    between atoms: _95  and  _98
REMARK   38  A    between atoms: _98  and  _99
REMARK   39  A    between atoms: _109  and  _111
REMARK   40  A    between atoms: _111  and  _112
REMARK   41  A    between atoms: _111  and  _114
REMARK   42  A    between atoms: _114  and  _115
REMARK   43  A    between atoms: _118  and  _120
REMARK   44  A    between atoms: _120  and  _121
REMARK   45  A    between atoms: _120  and  _123
REMARK   46  A    between atoms: _123  and  _124
REMARK   47  A    between atoms: _124  and  _125
REMARK   48  A    between atoms: _125  and  _126
REMARK   49  A    between atoms: _126  and  _127
REMARK   50  A    between atoms: _131  and  _133
REMARK   51  A    between atoms: _133  and  _134
REMARK   52  A    between atoms: _133  and  _136
REMARK   53  A    between atoms: _136  and  _137
REMARK   54  A    between atoms: _142  and  _144
REMARK   55  A    between atoms: _144  and  _145
REMARK   56  A    between atoms: _144  and  _147
REMARK   57  A    between atoms: _147  and  _148
REMARK   58  A    between atoms: _153  and  _155
REMARK   59  A    between atoms: _155  and  _156
REMARK   60  A    between atoms: _155  and  _158
REMARK   61  A    between atoms: _158  and  _159
REMARK   62  A    between atoms: _164  and  _165
REMARK   63  A    between atoms: _167  and  _169
REMARK   64  A    between atoms: _169  and  _170
REMARK   65  A    between atoms: _169  and  _172
REMARK   66  A    between atoms: _172  and  _173
REMARK   67  A    between atoms: _175  and  _177
REMARK   68  A    between atoms: _177  and  _178
REMARK   69  A    between atoms: _177  and  _180
REMARK   70  A    between atoms: _181  and  _182
REMARK   71  A    between atoms: _184  and  _186
REMARK   72  A    between atoms: _186  and  _187
REMARK   73  A    between atoms: _186  and  _189
REMARK   74  A    between atoms: _189  and  _190
REMARK   75  A    between atoms: _200  and  _202
REMARK   76  A    between atoms: _202  and  _203
REMARK   77  A    between atoms: _202  and  _205
REMARK   78  A    between atoms: _205  and  _206
REMARK   79  A    between atoms: _216  and  _218
REMARK   80  A    between atoms: _218  and  _219
REMARK   81  A    between atoms: _218  and  _221
REMARK   82  A    between atoms: _221  and  _222
REMARK   83  A    between atoms: _228  and  _230
REMARK   84  A    between atoms: _230  and  _231
REMARK   85  A    between atoms: _230  and  _233
REMARK   86  A    between atoms: _233  and  _234
REMARK   87  A    between atoms: _237  and  _239
REMARK   88  A    between atoms: _239  and  _240
REMARK   89  A    between atoms: _242  and  _244
REMARK   90  A    between atoms: _244  and  _245
REMARK   91  A    between atoms: _244  and  _247
REMARK   92  A    between atoms: _247  and  _248
REMARK   93  A    between atoms: _258  and  _260
REMARK   94  A    between atoms: _260  and  _261
REMARK   95  A    between atoms: _260  and  _263
REMARK   96  A    between atoms: _263  and  _264
REMARK   97  A    between atoms: _264  and  _265
REMARK   98  A    between atoms: _265  and  _266
REMARK   99  A    between atoms: _275  and  _277
REMARK  100  A    between atoms: _277  and  _278
REMARK  101  A    between atoms: _277  and  _280
REMARK  102  A    between atoms: _280  and  _281
REMARK  103  A    between atoms: _281  and  _282
REMARK  104  A    between atoms: _285  and  _287
REMARK  105  A    between atoms: _287  and  _288
REMARK  106  A    between atoms: _287  and  _290
REMARK  107  A    between atoms: _290  and  _291
REMARK  108  A    between atoms: _291  and  _292
REMARK  109  A    between atoms: _292  and  _293
REMARK  110  A    between atoms: _302  and  _304
REMARK  111  A    between atoms: _304  and  _305
REMARK  112  A    between atoms: _304  and  _307
REMARK  113  A    between atoms: _309  and  _311
REMARK  114  A    between atoms: _311  and  _312
REMARK  115  A    between atoms: _311  and  _314
REMARK  116  A    between atoms: _314  and  _315
REMARK  117  A    between atoms: _315  and  _316
REMARK  118  A    between atoms: _318  and  _320
REMARK  119  A    between atoms: _320  and  _321
REMARK  120  A    between atoms: _320  and  _323
REMARK  121  A    between atoms: _323  and  _324
REMARK  122  A    between atoms: _327  and  _329
REMARK  123  A    between atoms: _329  and  _330
REMARK  124  A    between atoms: _329  and  _332
REMARK  125  A    between atoms: _332  and  _333
REMARK  126  A    between atoms: _338  and  _340
REMARK  127  A    between atoms: _340  and  _341
REMARK  128  A    between atoms: _340  and  _343
REMARK  129  A    between atoms: _343  and  _344
REMARK  130  A    between atoms: _344  and  _345
REMARK  131  A    between atoms: _350  and  _352
REMARK  132  A    between atoms: _352  and  _353
REMARK  133  A    between atoms: _352  and  _355
REMARK  134  A    between atoms: _355  and  _356
REMARK  135  A    between atoms: _366  and  _368
REMARK  136  A    between atoms: _368  and  _369
REMARK  137  A    between atoms: _371  and  _373
REMARK  138  A    between atoms: _373  and  _374
REMARK  139  A    between atoms: _373  and  _376
REMARK  140  A    between atoms: _376  and  _377
REMARK                            x       y       z     vdW  Elec       q    Type
REMARK                         _______ _______ _______ _____ _____    ______ ____
ROOT
ATOM      1  CG  TYR A   1      35.618  -0.289  49.000  0.00  0.00    -0.020 A 
ATOM      2  CD2 TYR A   1      34.588  -1.177  49.227  0.00  0.00    -0.001 A 
ATOM      3  CE2 TYR A   1      33.273  -0.809  48.996  0.00  0.00    +0.036 A 
ATOM      4  CZ  TYR A   1      32.966   0.447  48.570  0.00  0.00    +0.134 A 
ATOM      5  CE1 TYR A   1      33.953   1.344  48.335  0.00  0.00    +0.036 A 
ATOM      6  CD1 TYR A   1      35.282   0.988  48.551  0.00  0.00    -0.001 A 
ENDROOT
BRANCH   4   7
ATOM      7  OH  TYR A   1      31.640   0.810  48.376  0.00  0.00    -0.506 OA
ATOM      8  HH  TYR A   1      31.506   1.073  47.431  0.00  0.00    +0.292 HD
ENDBRANCH   4   7
BRANCH   1   9
ATOM      9  CB  TYR A   1      37.070  -0.695  49.226  0.00  0.00    +0.051 C 
BRANCH   9  10
ATOM     10  CA  TYR A   1      37.671  -1.531  48.085  0.00  0.00    +0.137 C 
BRANCH  10  11
ATOM     11  N   TYR A   1      37.230  -1.015  46.757  0.00  0.00    -0.239 NA
ATOM     12  H   TYR A   1      36.594  -0.193  46.727  0.00  0.00    +0.142 HD
ENDBRANCH  10  11
BRANCH  10  13
ATOM     13  C   TYR A   1      37.353  -3.006  48.270  0.00  0.00    +0.224 C 
ATOM     14  O   TYR A   1      38.043  -3.708  49.006  0.00  0.00    -0.287 OA
ENDBRANCH  10  13
ENDBRANCH   9  10
ENDBRANCH   1   9
TORSDOF 5
REMARK  Name = ../refined-set-2016/4pcs/4pcs_pocket.pdb
REMARK  140 active torsions:
REMARK  status: ('A' for Active; 'I' for Inactive)
REMARK    1  A    between atoms: _1  and  _3
REMARK    2  A    between atoms: _3  and  _4
REMARK    3  A    between atoms: _3  and  _6
REMARK    4  A    between atoms: _6  and  _7
REMARK    5  A    between atoms: _13  and  _15
REMARK    6  A    between atoms: _15  and  _16
REMARK    7  A    between atoms: _15  and  _18
REMARK    8  A    between atoms: _18  and  _19
REMARK    9  A    between atoms: _22  and  _24
REMARK   10  A    between atoms: _24  and  _25
REMARK   11  A    between atoms: _24  and  _27
REMARK   12  A    between atoms: _27  and  _28
REMARK   13  A    between atoms: _33  and  _35
REMARK   14  A    between atoms: _35  and  _36
REMARK   15  A    between atoms: _35  and  _38
REMARK   16  A    between atoms: _38  and  _39
REMARK   17  A    between atoms: _44  and  _45
REMARK   18  A    between atoms: _47  and  _49
REMARK   19  A    between atoms: _49  and  _50
REMARK   20  A    between atoms: _53  and  _55
REMARK   21  A    between atoms: _55  and  _56
REMARK   22  A    between atoms: _59  and  _61
REMARK   23  A    between atoms: _61  and  _62
REMARK   24  A    between atoms: _61  and  _64
REMARK   25  A    between atoms: _64  and  _65
REMARK   26  A    between atoms: _65  and  _66
REMARK   27  A    between atoms: _69  and  _71
REMARK   28  A    between atoms: _71  and  _72
REMARK   29  A    between atoms: _71  and  _74
REMARK   30  A    between atoms: _74  and  _75
REMARK   31  A    between atoms: _85  and  _87
REMARK   32  A    between atoms: _87  and  _88
REMARK   33  A    between atoms: _87  and  _90
REMARK   34  A    between atoms: _90  and  _91
REMARK   35  A    between atoms: _93  and  _95
REMARK   36  A    between atoms: _95  and  _96
REMARK   37  A    between atoms: _95  and  _98
REMARK   38  A    between atoms: _98  and  _99
REMARK   39  A    between atoms: _109  and  _111
REMARK   40  A    between atoms: _111  and  _112
REMARK   41  A    between atoms: _111  and  _114
REMARK   42  A    between atoms: _114  and  _115
REMARK   43  A    between atoms: _118  and  _120
REMARK   44  A    between atoms: _120  and  _121
REMARK   45  A    between atoms: _120  and  _123
REMARK   46  A    between atoms: _123  and  _124
REMARK   47  A    between atoms: _124  and  _125
REMARK   48  A    between atoms: _125  and  _126
REMARK   49  A    between atoms: _126  and  _127
REMARK   50  A    between atoms: _131  and  _133
REMARK   51  A    between atoms: _133  and  _134
REMARK   52  A    between atoms: _133  and  _136
REMARK   53  A    between atoms: _136  and  _137
REMARK   54  A    between atoms: _142  and  _144
REMARK   55  A    between atoms: _144  and  _145
REMARK   56  A    between atoms: _144  and  _147
REMARK   57  A    between atoms: _147  and  _148
REMARK   58  A    between atoms: _153  and  _155
REMARK   59  A    between atoms: _155  and  _156
REMARK   60  A    between atoms: _155  and  _158
REMARK   61  A    between atoms: _158  and  _159
REMARK   62  A    between atoms: _164  and  _165
REMARK   63  A    between atoms: _167  and  _169
REMARK   64  A    between atoms: _169  and  _170
REMARK   65  A    between atoms: _169  and  _172
REMARK   66  A    between atoms: _172  and  _173
REMARK   67  A    between atoms: _175  and  _177
REMARK   68  A    between atoms: _177  and  _178
REMARK   69  A    between atoms: _177  and  _180
REMARK   70  A    between atoms: _181  and  _182
REMARK   71  A    between atoms: _184  and  _186
REMARK   72  A    between atoms: _186  and  _187
REMARK   73  A    between atoms: _186  and  _189
REMARK   74  A    between atoms: _189  and  _190
REMARK   75  A    between atoms: _200  and  _202
REMARK   76  A    between atoms: _202  and  _203
REMARK   77  A    between atoms: _202  and  _205
REMARK   78  A    between atoms: _205  and  _206
REMARK   79  A    between atoms: _216  and  _218
REMARK   80  A    between atoms: _218  and  _219
REMARK   81  A    between atoms: _218  and  _221
REMARK   82  A    between atoms: _221  and  _222
REMARK   83  A    between atoms: _228  and  _230
REMARK   84  A    between atoms: _230  and  _231
REMARK   85  A    between atoms: _230  and  _233
REMARK   86  A    between atoms: _233  and  _234
REMARK   87  A    between atoms: _237  and  _239
REMARK   88  A    between atoms: _239  and  _240
REMARK   89  A    between atoms: _242  and  _244
REMARK   90  A    between atoms: _244  and  _245
REMARK   91  A    between atoms: _244  and  _247
REMARK   92  A    between atoms: _247  and  _248
REMARK   93  A    between atoms: _258  and  _260
REMARK   94  A    between atoms: _260  and  _261
REMARK   95  A    between atoms: _260  and  _263
REMARK   96  A    between atoms: _263  and  _264
REMARK   97  A    between atoms: _264  and  _265
REMARK   98  A    between atoms: _265  and  _266
REMARK   99  A    between atoms: _275  and  _277
REMARK  100  A    between atoms: _277  and  _278
REMARK  101  A    between atoms: _277  and  _280
REMARK  102  A    between atoms: _280  and  _281
REMARK  103  A    between atoms: _281  and  _282
REMARK  104  A    between atoms: _285  and  _287
REMARK  105  A    between atoms: _287  and  _288
REMARK  106  A    between atoms: _287  and  _290
REMARK  107  A    between atoms: _290  and  _291
REMARK  108  A    between atoms: _291  and  _292
REMARK  109  A    between atoms: _292  and  _293
REMARK  110  A    between atoms: _302  and  _304
REMARK  111  A    between atoms: _304  and  _305
REMARK  112  A    between atoms: _304  and  _307
REMARK  113  A    between atoms: _309  and  _311
REMARK  114  A    between atoms: _311  and  _312
REMARK  115  A    between atoms: _311  and  _314
REMARK  116  A    between atoms: _314  and  _315
REMARK  117  A    between atoms: _315  and  _316
REMARK  118  A    between atoms: _318  and  _320
REMARK  119  A    between atoms: _320  and  _321
REMARK  120  A    between atoms: _320  and  _323
REMARK  121  A    between atoms: _323  and  _324
REMARK  122  A    between atoms: _327  and  _329
REMARK  123  A    between atoms: _329  and  _330
REMARK  124  A    between atoms: _329  and  _332
REMARK  125  A    between atoms: _332  and  _333
REMARK  126  A    between atoms: _338  and  _340
REMARK  127  A    between atoms: _340  and  _341
REMARK  128  A    between atoms: _340  and  _343
REMARK  129  A    between atoms: _343  and  _344
REMARK  130  A    between atoms: _344  and  _345
REMARK  131  A    between atoms: _350  and  _352
REMARK  132  A    between atoms: _352  and  _353
REMARK  133  A    between atoms: _352  and  _355
REMARK  134  A    between atoms: _355  and  _356
REMARK  135  A    between atoms: _366  and  _368
REMARK  136  A    between atoms: _368  and  _369
REMARK  137  A    between atoms: _371  and  _373
REMARK  138  A    between atoms: _373  and  _374
REMARK  139  A    between atoms: _373  and  _376
REMARK  140  A    between atoms: _376  and  _377
REMARK                            x       y       z     vdW  Elec       q    Type
REMARK                         _______ _______ _______ _____ _____    ______ ____
ROOT
ATOM      1  CA  GLU A   3      36.047   1.005  52.307  0.00  0.00    +0.149 C 
ENDROOT
BRANCH   1   3
ATOM      2  C   ALA A   2      37.416  -0.718  53.321  0.00  0.00    +0.241 C 
ATOM      3  N   GLU A   3      36.290  -0.012  53.315  0.00  0.00    -0.297 N 
ATOM      4  H   GLU A   3      35.571  -0.191  54.044  0.00  0.00    +0.150 HD
ATOM      5  O   ALA A   2      38.306  -0.494  52.555  0.00  0.00    -0.273 OA
BRANCH   2   6
ATOM      6  CA  ALA A   2      37.596  -1.774  54.409  0.00  0.00    +0.149 C 
ATOM      7  CB  ALA A   2      37.102  -3.109  53.945  0.00  0.00    +0.031 C 
BRANCH   6  10
ATOM      8  C   ALA A   1      37.190  -0.250  56.326  0.00  0.00    +0.238 C 
ATOM      9  O   ALA A   1      37.983   0.607  55.878  0.00  0.00    -0.274 OA
ATOM     10  N   ALA A   2      36.939  -1.405  55.703  0.00  0.00    -0.297 N 
ATOM     11  H   ALA A   2      36.264  -2.070  56.131  0.00  0.00    +0.150 HD
BRANCH   8  12
ATOM     12  CA  ALA A   1      36.547  -0.094  57.724  0.00  0.00    +0.145 C 
ATOM     13  CB  ALA A   1      35.512   1.020  57.733  0.00  0.00    +0.028 C 
BRANCH  12  14
ATOM     14  N   ALA A   1      37.552   0.145  58.748  0.00  0.00    -0.238 NA
ATOM     15  H   ALA A   1      37.464   0.995  59.341  0.00  0.00    +0.142 HD
ENDBRANCH  12  14
ENDBRANCH   8  12
ENDBRANCH   6  10
ENDBRANCH   2   6
ENDBRANCH   1   3
BRANCH   1  16
ATOM     16  C   GLU A   3      36.908   2.257  52.503  0.00  0.00    +0.241 C 
ATOM     17  N   TRP A   4      37.581   2.332  53.646  0.00  0.00    -0.298 N 
ATOM     18  H   TRP A   4      37.456   1.578  54.351  0.00  0.00    +0.150 HD
ATOM     19  O   GLU A   3      36.971   3.125  51.618  0.00  0.00    -0.273 OA
BRANCH  17  20
ATOM     20  CA  TRP A   4      38.491   3.436  53.949  0.00  0.00    +0.141 C 
BRANCH  20  21
ATOM     21  C   TRP A   4      39.947   2.969  53.839  0.00  0.00    +0.227 C 
ATOM     22  O   TRP A   4      40.843   3.689  54.263  0.00  0.00    -0.286 OA
ENDBRANCH  20  21
BRANCH  20  23
ATOM     23  CB  TRP A   4      38.239   3.954  55.361  0.00  0.00    +0.056 C 
BRANCH  23  24
ATOM     24  CG  TRP A   4      37.176   4.910  55.450  0.00  0.00    -0.002 A 
ATOM     25  CD2 TRP A   4      37.312   6.331  55.611  0.00  0.00    +0.013 A 
ATOM     26  CE3 TRP A   4      38.406   7.193  55.771  0.00  0.00    +0.001 A 
ATOM     27  CZ3 TRP A   4      38.180   8.540  55.871  0.00  0.00    +0.000 A 
ATOM     28  CH2 TRP A   4      36.892   9.055  55.877  0.00  0.00    +0.001 A 
ATOM     29  CZ2 TRP A   4      35.792   8.235  55.765  0.00  0.00    +0.017 A 
ATOM     30  CE2 TRP A   4      36.018   6.874  55.630  0.00  0.00    +0.056 A 
ATOM     31  NE1 TRP A   4      35.138   5.837  55.514  0.00  0.00    -0.352 N 
ATOM     32  HE1 TRP A   4      34.102   5.923  55.518  0.00  0.00    +0.166 HD
ATOM     33  CD1 TRP A   4      35.842   4.656  55.391  0.00  0.00    +0.068 A 
ENDBRANCH  23  24
ENDBRANCH  20  23
ENDBRANCH  17  20
ENDBRANCH   1  16
BRANCH   1  34
ATOM     34  CB  GLU A   3      34.572   1.328  52.152  0.00  0.00    +0.041 C 
BRANCH  34  35
ATOM     35  CG  GLU A   3      33.898   2.199  53.221  0.00  0.00    +0.116 C 
BRANCH  35  36
ATOM     36  CD  GLU A   3      33.653   1.499  54.562  0.00  0.00    +0.365 C 
ATOM     37  OE2 GLU A   3      33.366   2.269  55.509  0.00  0.00    -0.246 OA
ATOM     38  OE1 GLU A   3      33.793   0.259  54.670  0.00  0.00    -0.246 OA
ENDBRANCH  35  36
ENDBRANCH  34  35
ENDBRANCH   1  34
TORSDOF 13
REMARK  Name = ../refined-set-2016/4pcs/4pcs_pocket.pdb
REMARK  140 active torsions:
REMARK  status: ('A' for Active; 'I' for Inactive)
REMARK    1  A    between atoms: _1  and  _3
REMARK    2  A    between atoms: _3  and  _4
REMARK    3  A    between atoms: _3  and  _6
REMARK    4  A    between atoms: _6  and  _7
REMARK    5  A    between atoms: _13  and  _15
REMARK    6  A    between atoms: _15  and  _16
REMARK    7  A    between atoms: _15  and  _18
REMARK    8  A    between atoms: _18  and  _19
REMARK    9  A    between atoms: _22  and  _24
REMARK   10  A    between atoms: _24  and  _25
REMARK   11  A    between atoms: _24  and  _27
REMARK   12  A    between atoms: _27  and  _28
REMARK   13  A    between atoms: _33  and  _35
REMARK   14  A    between atoms: _35  and  _36
REMARK   15  A    between atoms: _35  and  _38
REMARK   16  A    between atoms: _38  and  _39
REMARK   17  A    between atoms: _44  and  _45
REMARK   18  A    between atoms: _47  and  _49
REMARK   19  A    between atoms: _49  and  _50
REMARK   20  A    between atoms: _53  and  _55
REMARK   21  A    between atoms: _55  and  _56
REMARK   22  A    between atoms: _59  and  _61
REMARK   23  A    between atoms: _61  and  _62
REMARK   24  A    between atoms: _61  and  _64
REMARK   25  A    between atoms: _64  and  _65
REMARK   26  A    between atoms: _65  and  _66
REMARK   27  A    between atoms: _69  and  _71
REMARK   28  A    between atoms: _71  and  _72
REMARK   29  A    between atoms: _71  and  _74
REMARK   30  A    between atoms: _74  and  _75
REMARK   31  A    between atoms: _85  and  _87
REMARK   32  A    between atoms: _87  and  _88
REMARK   33  A    between atoms: _87  and  _90
REMARK   34  A    between atoms: _90  and  _91
REMARK   35  A    between atoms: _93  and  _95
REMARK   36  A    between atoms: _95  and  _96
REMARK   37  A    between atoms: _95  and  _98
REMARK   38  A    between atoms: _98  and  _99
REMARK   39  A    between atoms: _109  and  _111
REMARK   40  A    between atoms: _111  and  _112
REMARK   41  A    between atoms: _111  and  _114
REMARK   42  A    between atoms: _114  and  _115
REMARK   43  A    between atoms: _118  and  _120
REMARK   44  A    between atoms: _120  and  _121
REMARK   45  A    between atoms: _120  and  _123
REMARK   46  A    between atoms: _123  and  _124
REMARK   47  A    between atoms: _124  and  _125
REMARK   48  A    between atoms: _125  and  _126
REMARK   49  A    between atoms: _126  and  _127
REMARK   50  A    between atoms: _131  and  _133
REMARK   51  A    between atoms: _133  and  _134
REMARK   52  A    between atoms: _133  and  _136
REMARK   53  A    between atoms: _136  and  _137
REMARK   54  A    between atoms: _142  and  _144
REMARK   55  A    between atoms: _144  and  _145
REMARK   56  A    between atoms: _144  and  _147
REMARK   57  A    between atoms: _147  and  _148
REMARK   58  A    between atoms: _153  and  _155
REMARK   59  A    between atoms: _155  and  _156
REMARK   60  A    between atoms: _155  and  _158
REMARK   61  A    between atoms: _158  and  _159
REMARK   62  A    between atoms: _164  and  _165
REMARK   63  A    between atoms: _167  and  _169
REMARK   64  A    between atoms: _169  and  _170
REMARK   65  A    between atoms: _169  and  _172
REMARK   66  A    between atoms: _172  and  _173
REMARK   67  A    between atoms: _175  and  _177
REMARK   68  A    between atoms: _177  and  _178
REMARK   69  A    between atoms: _177  and  _180
REMARK   70  A    between atoms: _181  and  _182
REMARK   71  A    between atoms: _184  and  _186
REMARK   72  A    between atoms: _186  and  _187
REMARK   73  A    between atoms: _186  and  _189
REMARK   74  A    between atoms: _189  and  _190
REMARK   75  A    between atoms: _200  and  _202
REMARK   76  A    between atoms: _202  and  _203
REMARK   77  A    between atoms: _202  and  _205
REMARK   78  A    between atoms: _205  and  _206
REMARK   79  A    between atoms: _216  and  _218
REMARK   80  A    between atoms: _218  and  _219
REMARK   81  A    between atoms: _218  and  _221
REMARK   82  A    between atoms: _221  and  _222
REMARK   83  A    between atoms: _228  and  _230
REMARK   84  A    between atoms: _230  and  _231
REMARK   85  A    between atoms: _230  and  _233
REMARK   86  A    between atoms: _233  and  _234
REMARK   87  A    between atoms: _237  and  _239
REMARK   88  A    between atoms: _239  and  _240
REMARK   89  A    between atoms: _242  and  _244
REMARK   90  A    between atoms: _244  and  _245
REMARK   91  A    between atoms: _244  and  _247
REMARK   92  A    between atoms: _247  and  _248
REMARK   93  A    between atoms: _258  and  _260
REMARK   94  A    between atoms: _260  and  _261
REMARK   95  A    between atoms: _260  and  _263
REMARK   96  A    between atoms: _263  and  _264
REMARK   97  A    between atoms: _264  and  _265
REMARK   98  A    between atoms: _265  and  _266
REMARK   99  A    between atoms: _275  and  _277
REMARK  100  A    between atoms: _277  and  _278
REMARK  101  A    between atoms: _277  and  _280
REMARK  102  A    between atoms: _280  and  _281
REMARK  103  A    between atoms: _281  and  _282
REMARK  104  A    between atoms: _285  and  _287
REMARK  105  A    between atoms: _287  and  _288
REMARK  106  A    between atoms: _287  and  _290
REMARK  107  A    between atoms: _290  and  _291
REMARK  108  A    between atoms: _291  and  _292
REMARK  109  A    between atoms: _292  and  _293
REMARK  110  A    between atoms: _302  and  _304
REMARK  111  A    between atoms: _304  and  _305
REMARK  112  A    between atoms: _304  and  _307
REMARK  113  A    between atoms: _309  and  _311
REMARK  114  A    between atoms: _311  and  _312
REMARK  115  A    between atoms: _311  and  _314
REMARK  116  A    between atoms: _314  and  _315
REMARK  117  A    between atoms: _315  and  _316
REMARK  118  A    between atoms: _318  and  _320
REMARK  119  A    between atoms: _320  and  _321
REMARK  120  A    between atoms: _320  and  _323
REMARK  121  A    between atoms: _323  and  _324
REMARK  122  A    between atoms: _327  and  _329
REMARK  123  A    between atoms: _329  and  _330
REMARK  124  A    between atoms: _329  and  _332
REMARK  125  A    between atoms: _332  and  _333
REMARK  126  A    between atoms: _338  and  _340
REMARK  127  A    between atoms: _340  and  _341
REMARK  128  A    between atoms: _340  and  _343
REMARK  129  A    between atoms: _343  and  _344
REMARK  130  A    between atoms: _344  and  _345
REMARK  131  A    between atoms: _350  and  _352
REMARK  132  A    between atoms: _352  and  _353
REMARK  133  A    between atoms: _352  and  _355
REMARK  134  A    between atoms: _355  and  _356
REMARK  135  A    between atoms: _366  and  _368
REMARK  136  A    between atoms: _368  and  _369
REMARK  137  A    between atoms: _371  and  _373
REMARK  138  A    between atoms: _373  and  _374
REMARK  139  A    between atoms: _373  and  _376
REMARK  140  A    between atoms: _376  and  _377
REMARK                            x       y       z     vdW  Elec       q    Type
REMARK                         _______ _______ _______ _____ _____    ______ ____
ROOT
ATOM      1  CA  TRP A   2      44.484   3.457  56.419  0.00  0.00    +0.141 C 
ENDROOT
BRANCH   1   3
ATOM      2  C   SER A   1      44.144   5.368  54.928  0.00  0.00    +0.241 C 
ATOM      3  N   TRP A   2      43.708   4.209  55.417  0.00  0.00    -0.298 N 
ATOM      4  H   TRP A   2      42.800   3.826  55.085  0.00  0.00    +0.150 HD
ATOM      5  O   SER A   1      45.280   5.822  55.196  0.00  0.00    -0.274 OA
BRANCH   2   6
ATOM      6  CA  SER A   1      43.233   6.082  53.927  0.00  0.00    +0.174 C 
BRANCH   6   7
ATOM      7  N   SER A   1      42.789   5.199  52.884  0.00  0.00    -0.236 NA
ATOM      8  H   SER A   1      41.800   4.878  52.887  0.00  0.00    +0.142 HD
ENDBRANCH   6   7
BRANCH   6   9
ATOM      9  CB  SER A   1      42.030   6.678  54.624  0.00  0.00    +0.163 C 
BRANCH   9  10
ATOM     10  OG  SER A   1      42.427   7.806  55.372  0.00  0.00    -0.380 OA
ATOM     11  H   SER A   1      41.638   8.193  55.827  0.00  0.00    +0.211 HD
ENDBRANCH   9  10
ENDBRANCH   6   9
ENDBRANCH   2   6
ENDBRANCH   1   3
BRANCH   1  12
ATOM     12  C   TRP A   2      45.859   3.089  55.895  0.00  0.00    +0.227 C 
ATOM     13  O   TRP A   2      46.837   3.220  56.606  0.00  0.00    -0.286 OA
ENDBRANCH   1  12
BRANCH   1  14
ATOM     14  CB  TRP A   2      43.816   2.141  56.882  0.00  0.00    +0.056 C 
BRANCH  14  15
ATOM     15  CG  TRP A   2      42.343   2.210  57.222  0.00  0.00    -0.002 A 
ATOM     16  CD2 TRP A   2      41.657   3.275  57.896  0.00  0.00    +0.013 A 
ATOM     17  CE3 TRP A   2      42.057   4.497  58.432  0.00  0.00    +0.001 A 
ATOM     18  CZ3 TRP A   2      41.099   5.330  59.017  0.00  0.00    +0.000 A 
ATOM     19  CH2 TRP A   2      39.755   4.942  59.081  0.00  0.00    +0.001 A 
ATOM     20  CZ2 TRP A   2      39.341   3.739  58.567  0.00  0.00    +0.017 A 
ATOM     21  CE2 TRP A   2      40.302   2.920  57.965  0.00  0.00    +0.056 A 
ATOM     22  NE1 TRP A   2      40.177   1.689  57.382  0.00  0.00    -0.352 N 
ATOM     23  HE1 TRP A   2      39.291   1.153  57.286  0.00  0.00    +0.166 HD
ATOM     24  CD1 TRP A   2      41.416   1.273  56.942  0.00  0.00    +0.068 A 
ENDBRANCH  14  15
ENDBRANCH   1  14
TORSDOF 8
REMARK  Name = ../refined-set-2016/4pcs/4pcs_pocket.pdb
REMARK  140 active torsions:
REMARK  status: ('A' for Active; 'I' for Inactive)
REMARK    1  A    between atoms: _1  and  _3
REMARK    2  A    between atoms: _3  and  _4
REMARK    3  A    between atoms: _3  and  _6
REMARK    4  A    between atoms: _6  and  _7
REMARK    5  A    between atoms: _13  and  _15
REMARK    6  A    between atoms: _15  and  _16
REMARK    7  A    between atoms: _15  and  _18
REMARK    8  A    between atoms: _18  and  _19
REMARK    9  A    between atoms: _22  and  _24
REMARK   10  A    between atoms: _24  and  _25
REMARK   11  A    between atoms: _24  and  _27
REMARK   12  A    between atoms: _27  and  _28
REMARK   13  A    between atoms: _33  and  _35
REMARK   14  A    between atoms: _35  and  _36
REMARK   15  A    between atoms: _35  and  _38
REMARK   16  A    between atoms: _38  and  _39
REMARK   17  A    between atoms: _44  and  _45
REMARK   18  A    between atoms: _47  and  _49
REMARK   19  A    between atoms: _49  and  _50
REMARK   20  A    between atoms: _53  and  _55
REMARK   21  A    between atoms: _55  and  _56
REMARK   22  A    between atoms: _59  and  _61
REMARK   23  A    between atoms: _61  and  _62
REMARK   24  A    between atoms: _61  and  _64
REMARK   25  A    between atoms: _64  and  _65
REMARK   26  A    between atoms: _65  and  _66
REMARK   27  A    between atoms: _69  and  _71
REMARK   28  A    between atoms: _71  and  _72
REMARK   29  A    between atoms: _71  and  _74
REMARK   30  A    between atoms: _74  and  _75
REMARK   31  A    between atoms: _85  and  _87
REMARK   32  A    between atoms: _87  and  _88
REMARK   33  A    between atoms: _87  and  _90
REMARK   34  A    between atoms: _90  and  _91
REMARK   35  A    between atoms: _93  and  _95
REMARK   36  A    between atoms: _95  and  _96
REMARK   37  A    between atoms: _95  and  _98
REMARK   38  A    between atoms: _98  and  _99
REMARK   39  A    between atoms: _109  and  _111
REMARK   40  A    between atoms: _111  and  _112
REMARK   41  A    between atoms: _111  and  _114
REMARK   42  A    between atoms: _114  and  _115
REMARK   43  A    between atoms: _118  and  _120
REMARK   44  A    between atoms: _120  and  _121
REMARK   45  A    between atoms: _120  and  _123
REMARK   46  A    between atoms: _123  and  _124
REMARK   47  A    between atoms: _124  and  _125
REMARK   48  A    between atoms: _125  and  _126
REMARK   49  A    between atoms: _126  and  _127
REMARK   50  A    between atoms: _131  and  _133
REMARK   51  A    between atoms: _133  and  _134
REMARK   52  A    between atoms: _133  and  _136
REMARK   53  A    between atoms: _136  and  _137
REMARK   54  A    between atoms: _142  and  _144
REMARK   55  A    between atoms: _144  and  _145
REMARK   56  A    between atoms: _144  and  _147
REMARK   57  A    between atoms: _147  and  _148
REMARK   58  A    between atoms: _153  and  _155
REMARK   59  A    between atoms: _155  and  _156
REMARK   60  A    between atoms: _155  and  _158
REMARK   61  A    between atoms: _158  and  _159
REMARK   62  A    between atoms: _164  and  _165
REMARK   63  A    between atoms: _167  and  _169
REMARK   64  A    between atoms: _169  and  _170
REMARK   65  A    between atoms: _169  and  _172
REMARK   66  A    between atoms: _172  and  _173
REMARK   67  A    between atoms: _175  and  _177
REMARK   68  A    between atoms: _177  and  _178
REMARK   69  A    between atoms: _177  and  _180
REMARK   70  A    between atoms: _181  and  _182
REMARK   71  A    between atoms: _184  and  _186
REMARK   72  A    between atoms: _186  and  _187
REMARK   73  A    between atoms: _186  and  _189
REMARK   74  A    between atoms: _189  and  _190
REMARK   75  A    between atoms: _200  and  _202
REMARK   76  A    between atoms: _202  and  _203
REMARK   77  A    between atoms: _202  and  _205
REMARK   78  A    between atoms: _205  and  _206
REMARK   79  A    between atoms: _216  and  _218
REMARK   80  A    between atoms: _218  and  _219
REMARK   81  A    between atoms: _218  and  _221
REMARK   82  A    between atoms: _221  and  _222
REMARK   83  A    between atoms: _228  and  _230
REMARK   84  A    between atoms: _230  and  _231
REMARK   85  A    between atoms: _230  and  _233
REMARK   86  A    between atoms: _233  and  _234
REMARK   87  A    between atoms: _237  and  _239
REMARK   88  A    between atoms: _239  and  _240
REMARK   89  A    between atoms: _242  and  _244
REMARK   90  A    between atoms: _244  and  _245
REMARK   91  A    between atoms: _244  and  _247
REMARK   92  A    between atoms: _247  and  _248
REMARK   93  A    between atoms: _258  and  _260
REMARK   94  A    between atoms: _260  and  _261
REMARK   95  A    between atoms: _260  and  _263
REMARK   96  A    between atoms: _263  and  _264
REMARK   97  A    between atoms: _264  and  _265
REMARK   98  A    between atoms: _265  and  _266
REMARK   99  A    between atoms: _275  and  _277
REMARK  100  A    between atoms: _277  and  _278
REMARK  101  A    between atoms: _277  and  _280
REMARK  102  A    between atoms: _280  and  _281
REMARK  103  A    between atoms: _281  and  _282
REMARK  104  A    between atoms: _285  and  _287
REMARK  105  A    between atoms: _287  and  _288
REMARK  106  A    between atoms: _287  and  _290
REMARK  107  A    between atoms: _290  and  _291
REMARK  108  A    between atoms: _291  and  _292
REMARK  109  A    between atoms: _292  and  _293
REMARK  110  A    between atoms: _302  and  _304
REMARK  111  A    between atoms: _304  and  _305
REMARK  112  A    between atoms: _304  and  _307
REMARK  113  A    between atoms: _309  and  _311
REMARK  114  A    between atoms: _311  and  _312
REMARK  115  A    between atoms: _311  and  _314
REMARK  116  A    between atoms: _314  and  _315
REMARK  117  A    between atoms: _315  and  _316
REMARK  118  A    between atoms: _318  and  _320
REMARK  119  A    between atoms: _320  and  _321
REMARK  120  A    between atoms: _320  and  _323
REMARK  121  A    between atoms: _323  and  _324
REMARK  122  A    between atoms: _327  and  _329
REMARK  123  A    between atoms: _329  and  _330
REMARK  124  A    between atoms: _329  and  _332
REMARK  125  A    between atoms: _332  and  _333
REMARK  126  A    between atoms: _338  and  _340
REMARK  127  A    between atoms: _340  and  _341
REMARK  128  A    between atoms: _340  and  _343
REMARK  129  A    between atoms: _343  and  _344
REMARK  130  A    between atoms: _344  and  _345
REMARK  131  A    between atoms: _350  and  _352
REMARK  132  A    between atoms: _352  and  _353
REMARK  133  A    between atoms: _352  and  _355
REMARK  134  A    between atoms: _355  and  _356
REMARK  135  A    between atoms: _366  and  _368
REMARK  136  A    between atoms: _368  and  _369
REMARK  137  A    between atoms: _371  and  _373
REMARK  138  A    between atoms: _373  and  _374
REMARK  139  A    between atoms: _373  and  _376
REMARK  140  A    between atoms: _376  and  _377
REMARK                            x       y       z     vdW  Elec       q    Type
REMARK                         _______ _______ _______ _____ _____    ______ ____
ROOT
ATOM      1  CA  THR A   1      26.648   3.364  46.664  0.00  0.00    +0.160 C 
ENDROOT
BRANCH   1   2
ATOM      2  N   THR A   1      25.537   2.400  46.809  0.00  0.00    -0.237 NA
ATOM      3  H   THR A   1      25.734   1.413  47.070  0.00  0.00    +0.142 HD
ENDBRANCH   1   2
BRANCH   1   4
ATOM      4  CB  THR A   1      27.964   2.839  47.278  0.00  0.00    +0.134 C 
ATOM      5  CG2 THR A   1      27.923   2.833  48.810  0.00  0.00    +0.034 C 
BRANCH   4   6
ATOM      6  OG1 THR A   1      28.220   1.515  46.819  0.00  0.00    -0.383 OA
ATOM      7  HG1 THR A   1      28.298   1.518  45.832  0.00  0.00    +0.210 HD
ENDBRANCH   4   6
ENDBRANCH   1   4
BRANCH   1   8
ATOM      8  C   THR A   1      26.912   3.610  45.163  0.00  0.00    +0.227 C 
ATOM      9  O   THR A   1      27.612   2.825  44.513  0.00  0.00    -0.287 OA
ENDBRANCH   1   8
TORSDOF 4
REMARK  Name = ../refined-set-2016/4pcs/4pcs_pocket.pdb
REMARK  140 active torsions:
REMARK  status: ('A' for Active; 'I' for Inactive)
REMARK    1  A    between atoms: _1  and  _3
REMARK    2  A    between atoms: _3  and  _4
REMARK    3  A    between atoms: _3  and  _6
REMARK    4  A    between atoms: _6  and  _7
REMARK    5  A    between atoms: _13  and  _15
REMARK    6  A    between atoms: _15  and  _16
REMARK    7  A    between atoms: _15  and  _18
REMARK    8  A    between atoms: _18  and  _19
REMARK    9  A    between atoms: _22  and  _24
REMARK   10  A    between atoms: _24  and  _25
REMARK   11  A    between atoms: _24  and  _27
REMARK   12  A    between atoms: _27  and  _28
REMARK   13  A    between atoms: _33  and  _35
REMARK   14  A    between atoms: _35  and  _36
REMARK   15  A    between atoms: _35  and  _38
REMARK   16  A    between atoms: _38  and  _39
REMARK   17  A    between atoms: _44  and  _45
REMARK   18  A    between atoms: _47  and  _49
REMARK   19  A    between atoms: _49  and  _50
REMARK   20  A    between atoms: _53  and  _55
REMARK   21  A    between atoms: _55  and  _56
REMARK   22  A    between atoms: _59  and  _61
REMARK   23  A    between atoms: _61  and  _62
REMARK   24  A    between atoms: _61  and  _64
REMARK   25  A    between atoms: _64  and  _65
REMARK   26  A    between atoms: _65  and  _66
REMARK   27  A    between atoms: _69  and  _71
REMARK   28  A    between atoms: _71  and  _72
REMARK   29  A    between atoms: _71  and  _74
REMARK   30  A    between atoms: _74  and  _75
REMARK   31  A    between atoms: _85  and  _87
REMARK   32  A    between atoms: _87  and  _88
REMARK   33  A    between atoms: _87  and  _90
REMARK   34  A    between atoms: _90  and  _91
REMARK   35  A    between atoms: _93  and  _95
REMARK   36  A    between atoms: _95  and  _96
REMARK   37  A    between atoms: _95  and  _98
REMARK   38  A    between atoms: _98  and  _99
REMARK   39  A    between atoms: _109  and  _111
REMARK   40  A    between atoms: _111  and  _112
REMARK   41  A    between atoms: _111  and  _114
REMARK   42  A    between atoms: _114  and  _115
REMARK   43  A    between atoms: _118  and  _120
REMARK   44  A    between atoms: _120  and  _121
REMARK   45  A    between atoms: _120  and  _123
REMARK   46  A    between atoms: _123  and  _124
REMARK   47  A    between atoms: _124  and  _125
REMARK   48  A    between atoms: _125  and  _126
REMARK   49  A    between atoms: _126  and  _127
REMARK   50  A    between atoms: _131  and  _133
REMARK   51  A    between atoms: _133  and  _134
REMARK   52  A    between atoms: _133  and  _136
REMARK   53  A    between atoms: _136  and  _137
REMARK   54  A    between atoms: _142  and  _144
REMARK   55  A    between atoms: _144  and  _145
REMARK   56  A    between atoms: _144  and  _147
REMARK   57  A    between atoms: _147  and  _148
REMARK   58  A    between atoms: _153  and  _155
REMARK   59  A    between atoms: _155  and  _156
REMARK   60  A    between atoms: _155  and  _158
REMARK   61  A    between atoms: _158  and  _159
REMARK   62  A    between atoms: _164  and  _165
REMARK   63  A    between atoms: _167  and  _169
REMARK   64  A    between atoms: _169  and  _170
REMARK   65  A    between atoms: _169  and  _172
REMARK   66  A    between atoms: _172  and  _173
REMARK   67  A    between atoms: _175  and  _177
REMARK   68  A    between atoms: _177  and  _178
REMARK   69  A    between atoms: _177  and  _180
REMARK   70  A    between atoms: _181  and  _182
REMARK   71  A    between atoms: _184  and  _186
REMARK   72  A    between atoms: _186  and  _187
REMARK   73  A    between atoms: _186  and  _189
REMARK   74  A    between atoms: _189  and  _190
REMARK   75  A    between atoms: _200  and  _202
REMARK   76  A    between atoms: _202  and  _203
REMARK   77  A    between atoms: _202  and  _205
REMARK   78  A    between atoms: _205  and  _206
REMARK   79  A    between atoms: _216  and  _218
REMARK   80  A    between atoms: _218  and  _219
REMARK   81  A    between atoms: _218  and  _221
REMARK   82  A    between atoms: _221  and  _222
REMARK   83  A    between atoms: _228  and  _230
REMARK   84  A    between atoms: _230  and  _231
REMARK   85  A    between atoms: _230  and  _233
REMARK   86  A    between atoms: _233  and  _234
REMARK   87  A    between atoms: _237  and  _239
REMARK   88  A    between atoms: _239  and  _240
REMARK   89  A    between atoms: _242  and  _244
REMARK   90  A    between atoms: _244  and  _245
REMARK   91  A    between atoms: _244  and  _247
REMARK   92  A    between atoms: _247  and  _248
REMARK   93  A    between atoms: _258  and  _260
REMARK   94  A    between atoms: _260  and  _261
REMARK   95  A    between atoms: _260  and  _263
REMARK   96  A    between atoms: _263  and  _264
REMARK   97  A    between atoms: _264  and  _265
REMARK   98  A    between atoms: _265  and  _266
REMARK   99  A    between atoms: _275  and  _277
REMARK  100  A    between atoms: _277  and  _278
REMARK  101  A    between atoms: _277  and  _280
REMARK  102  A    between atoms: _280  and  _281
REMARK  103  A    between atoms: _281  and  _282
REMARK  104  A    between atoms: _285  and  _287
REMARK  105  A    between atoms: _287  and  _288
REMARK  106  A    between atoms: _287  and  _290
REMARK  107  A    between atoms: _290  and  _291
REMARK  108  A    between atoms: _291  and  _292
REMARK  109  A    between atoms: _292  and  _293
REMARK  110  A    between atoms: _302  and  _304
REMARK  111  A    between atoms: _304  and  _305
REMARK  112  A    between atoms: _304  and  _307
REMARK  113  A    between atoms: _309  and  _311
REMARK  114  A    between atoms: _311  and  _312
REMARK  115  A    between atoms: _311  and  _314
REMARK  116  A    between atoms: _314  and  _315
REMARK  117  A    between atoms: _315  and  _316
REMARK  118  A    between atoms: _318  and  _320
REMARK  119  A    between atoms: _320  and  _321
REMARK  120  A    between atoms: _320  and  _323
REMARK  121  A    between atoms: _323  and  _324
REMARK  122  A    between atoms: _327  and  _329
REMARK  123  A    between atoms: _329  and  _330
REMARK  124  A    between atoms: _329  and  _332
REMARK  125  A    between atoms: _332  and  _333
REMARK  126  A    between atoms: _338  and  _340
REMARK  127  A    between atoms: _340  and  _341
REMARK  128  A    between atoms: _340  and  _343
REMARK  129  A    between atoms: _343  and  _344
REMARK  130  A    between atoms: _344  and  _345
REMARK  131  A    between atoms: _350  and  _352
REMARK  132  A    between atoms: _352  and  _353
REMARK  133  A    between atoms: _352  and  _355
REMARK  134  A    between atoms: _355  and  _356
REMARK  135  A    between atoms: _366  and  _368
REMARK  136  A    between atoms: _368  and  _369
REMARK  137  A    between atoms: _371  and  _373
REMARK  138  A    between atoms: _373  and  _374
REMARK  139  A    between atoms: _373  and  _376
REMARK  140  A    between atoms: _376  and  _377
REMARK                            x       y       z     vdW  Elec       q    Type
REMARK                         _______ _______ _______ _____ _____    ______ ____
ROOT
ATOM      1  CA  HIS A   2      31.955   6.269  47.566  0.00  0.00    +0.155 C 
ENDROOT
BRANCH   1   4
ATOM      2  C   LYS A   1      30.417   6.767  45.727  0.00  0.00    +0.238 C 
ATOM      3  O   LYS A   1      29.703   7.463  46.417  0.00  0.00    -0.274 OA
ATOM      4  N   HIS A   2      31.485   6.133  46.196  0.00  0.00    -0.297 N 
ATOM      5  H   HIS A   2      32.012   5.508  45.552  0.00  0.00    +0.150 HD
BRANCH   2   6
ATOM      6  CA  LYS A   1      30.060   6.589  44.210  0.00  0.00    +0.145 C 
BRANCH   6   7
ATOM      7  N   LYS A   1      28.636   6.197  44.107  0.00  0.00    -0.238 NA
ATOM      8  H   LYS A   1      27.996   6.480  44.877  0.00  0.00    +0.142 HD
ENDBRANCH   6   7
BRANCH   6   9
ATOM      9  CB  LYS A   1      30.235   7.933  43.498  0.00  0.00    +0.026 C 
BRANCH   9  10
ATOM     10  CG  LYS A   1      31.638   8.496  43.541  0.00  0.00    -0.000 C 
BRANCH  10  11
ATOM     11  CD  LYS A   1      31.756   9.851  42.852  0.00  0.00    -0.024 C 
BRANCH  11  12
ATOM     12  CE  LYS A   1      31.206  10.967  43.678  0.00  0.00    -0.086 C 
BRANCH  12  13
ATOM     13  NZ  LYS A   1      31.806  12.266  43.268  0.00  0.00    +0.380 N 
ATOM     14  HZ1 LYS A   1      31.411  13.029  43.854  0.00  0.00    -0.089 HD
ATOM     15  HZ2 LYS A   1      32.837  12.226  43.397  0.00  0.00    -0.089 HD
ATOM     16  HZ3 LYS A   1      31.588  12.447  42.267  0.00  0.00    -0.089 HD
ENDBRANCH  12  13
ENDBRANCH  11  12
ENDBRANCH  10  11
ENDBRANCH   9  10
ENDBRANCH   6   9
ENDBRANCH   2   6
ENDBRANCH   1   4
BRANCH   1  17
ATOM     17  C   HIS A   2      33.127   7.273  47.555  0.00  0.00    +0.241 C 
ATOM     18  N   HIS A   3      33.832   7.446  48.684  0.00  0.00    -0.298 N 
ATOM     19  H   HIS A   3      33.645   6.829  49.500  0.00  0.00    +0.150 HD
ATOM     20  O   HIS A   2      33.362   7.904  46.517  0.00  0.00    -0.273 OA
BRANCH  18  21
ATOM     21  CA  HIS A   3      34.861   8.488  48.792  0.00  0.00    +0.143 C 
BRANCH  21  22
ATOM     22  C   HIS A   3      35.957   8.284  47.741  0.00  0.00    +0.227 C 
ATOM     23  O   HIS A   3      36.508   9.264  47.233  0.00  0.00    -0.286 OA
ENDBRANCH  21  22
BRANCH  21  24
ATOM     24  CB  HIS A   3      35.533   8.546  50.191  0.00  0.00    +0.075 C 
BRANCH  24  25
ATOM     25  CG  HIS A   3      34.572   8.582  51.345  0.00  0.00    +0.082 A 
ATOM     26  CD2 HIS A   3      34.667   8.050  52.589  0.00  0.00    +0.115 A 
ATOM     27  NE2 HIS A   3      33.497   8.349  53.244  0.00  0.00    -0.221 NA
ATOM     28  CE1 HIS A   3      32.712   9.039  52.438  0.00  0.00    +0.199 A 
ATOM     29  ND1 HIS A   3      33.344   9.216  51.293  0.00  0.00    -0.227 NA
ENDBRANCH  24  25
ENDBRANCH  21  24
ENDBRANCH  18  21
ENDBRANCH   1  17
BRANCH   1  30
ATOM     30  CB  HIS A   2      32.305   4.887  48.203  0.00  0.00    +0.076 C 
BRANCH  30  31
ATOM     31  CG  HIS A   2      32.229   4.879  49.711  0.00  0.00    +0.082 A 
ATOM     32  CD2 HIS A   2      31.162   4.828  50.557  0.00  0.00    +0.115 A 
ATOM     33  NE2 HIS A   2      31.665   4.916  51.839  0.00  0.00    -0.221 NA
ATOM     34  CE1 HIS A   2      32.989   5.029  51.783  0.00  0.00    +0.199 A 
ATOM     35  ND1 HIS A   2      33.353   5.040  50.511  0.00  0.00    -0.227 NA
ENDBRANCH  30  31
ENDBRANCH   1  30
TORSDOF 15
REMARK  Name = ../refined-set-2016/4pcs/4pcs_pocket.pdb
REMARK  140 active torsions:
REMARK  status: ('A' for Active; 'I' for Inactive)
REMARK    1  A    between atoms: _1  and  _3
REMARK    2  A    between atoms: _3  and  _4
REMARK    3  A    between atoms: _3  and  _6
REMARK    4  A    between atoms: _6  and  _7
REMARK    5  A    between atoms: _13  and  _15
REMARK    6  A    between atoms: _15  and  _16
REMARK    7  A    between atoms: _15  and  _18
REMARK    8  A    between atoms: _18  and  _19
REMARK    9  A    between atoms: _22  and  _24
REMARK   10  A    between atoms: _24  and  _25
REMARK   11  A    between atoms: _24  and  _27
REMARK   12  A    between atoms: _27  and  _28
REMARK   13  A    between atoms: _33  and  _35
REMARK   14  A    between atoms: _35  and  _36
REMARK   15  A    between atoms: _35  and  _38
REMARK   16  A    between atoms: _38  and  _39
REMARK   17  A    between atoms: _44  and  _45
REMARK   18  A    between atoms: _47  and  _49
REMARK   19  A    between atoms: _49  and  _50
REMARK   20  A    between atoms: _53  and  _55
REMARK   21  A    between atoms: _55  and  _56
REMARK   22  A    between atoms: _59  and  _61
REMARK   23  A    between atoms: _61  and  _62
REMARK   24  A    between atoms: _61  and  _64
REMARK   25  A    between atoms: _64  and  _65
REMARK   26  A    between atoms: _65  and  _66
REMARK   27  A    between atoms: _69  and  _71
REMARK   28  A    between atoms: _71  and  _72
REMARK   29  A    between atoms: _71  and  _74
REMARK   30  A    between atoms: _74  and  _75
REMARK   31  A    between atoms: _85  and  _87
REMARK   32  A    between atoms: _87  and  _88
REMARK   33  A    between atoms: _87  and  _90
REMARK   34  A    between atoms: _90  and  _91
REMARK   35  A    between atoms: _93  and  _95
REMARK   36  A    between atoms: _95  and  _96
REMARK   37  A    between atoms: _95  and  _98
REMARK   38  A    between atoms: _98  and  _99
REMARK   39  A    between atoms: _109  and  _111
REMARK   40  A    between atoms: _111  and  _112
REMARK   41  A    between atoms: _111  and  _114
REMARK   42  A    between atoms: _114  and  _115
REMARK   43  A    between atoms: _118  and  _120
REMARK   44  A    between atoms: _120  and  _121
REMARK   45  A    between atoms: _120  and  _123
REMARK   46  A    between atoms: _123  and  _124
REMARK   47  A    between atoms: _124  and  _125
REMARK   48  A    between atoms: _125  and  _126
REMARK   49  A    between atoms: _126  and  _127
REMARK   50  A    between atoms: _131  and  _133
REMARK   51  A    between atoms: _133  and  _134
REMARK   52  A    between atoms: _133  and  _136
REMARK   53  A    between atoms: _136  and  _137
REMARK   54  A    between atoms: _142  and  _144
REMARK   55  A    between atoms: _144  and  _145
REMARK   56  A    between atoms: _144  and  _147
REMARK   57  A    between atoms: _147  and  _148
REMARK   58  A    between atoms: _153  and  _155
REMARK   59  A    between atoms: _155  and  _156
REMARK   60  A    between atoms: _155  and  _158
REMARK   61  A    between atoms: _158  and  _159
REMARK   62  A    between atoms: _164  and  _165
REMARK   63  A    between atoms: _167  and  _169
REMARK   64  A    between atoms: _169  and  _170
REMARK   65  A    between atoms: _169  and  _172
REMARK   66  A    between atoms: _172  and  _173
REMARK   67  A    between atoms: _175  and  _177
REMARK   68  A    between atoms: _177  and  _178
REMARK   69  A    between atoms: _177  and  _180
REMARK   70  A    between atoms: _181  and  _182
REMARK   71  A    between atoms: _184  and  _186
REMARK   72  A    between atoms: _186  and  _187
REMARK   73  A    between atoms: _186  and  _189
REMARK   74  A    between atoms: _189  and  _190
REMARK   75  A    between atoms: _200  and  _202
REMARK   76  A    between atoms: _202  and  _203
REMARK   77  A    between atoms: _202  and  _205
REMARK   78  A    between atoms: _205  and  _206
REMARK   79  A    between atoms: _216  and  _218
REMARK   80  A    between atoms: _218  and  _219
REMARK   81  A    between atoms: _218  and  _221
REMARK   82  A    between atoms: _221  and  _222
REMARK   83  A    between atoms: _228  and  _230
REMARK   84  A    between atoms: _230  and  _231
REMARK   85  A    between atoms: _230  and  _233
REMARK   86  A    between atoms: _233  and  _234
REMARK   87  A    between atoms: _237  and  _239
REMARK   88  A    between atoms: _239  and  _240
REMARK   89  A    between atoms: _242  and  _244
REMARK   90  A    between atoms: _244  and  _245
REMARK   91  A    between atoms: _244  and  _247
REMARK   92  A    between atoms: _247  and  _248
REMARK   93  A    between atoms: _258  and  _260
REMARK   94  A    between atoms: _260  and  _261
REMARK   95  A    between atoms: _260  and  _263
REMARK   96  A    between atoms: _263  and  _264
REMARK   97  A    between atoms: _264  and  _265
REMARK   98  A    between atoms: _265  and  _266
REMARK   99  A    between atoms: _275  and  _277
REMARK  100  A    between atoms: _277  and  _278
REMARK  101  A    between atoms: _277  and  _280
REMARK  102  A    between atoms: _280  and  _281
REMARK  103  A    between atoms: _281  and  _282
REMARK  104  A    between atoms: _285  and  _287
REMARK  105  A    between atoms: _287  and  _288
REMARK  106  A    between atoms: _287  and  _290
REMARK  107  A    between atoms: _290  and  _291
REMARK  108  A    between atoms: _291  and  _292
REMARK  109  A    between atoms: _292  and  _293
REMARK  110  A    between atoms: _302  and  _304
REMARK  111  A    between atoms: _304  and  _305
REMARK  112  A    between atoms: _304  and  _307
REMARK  113  A    between atoms: _309  and  _311
REMARK  114  A    between atoms: _311  and  _312
REMARK  115  A    between atoms: _311  and  _314
REMARK  116  A    between atoms: _314  and  _315
REMARK  117  A    between atoms: _315  and  _316
REMARK  118  A    between atoms: _318  and  _320
REMARK  119  A    between atoms: _320  and  _321
REMARK  120  A    between atoms: _320  and  _323
REMARK  121  A    between atoms: _323  and  _324
REMARK  122  A    between atoms: _327  and  _329
REMARK  123  A    between atoms: _329  and  _330
REMARK  124  A    between atoms: _329  and  _332
REMARK  125  A    between atoms: _332  and  _333
REMARK  126  A    between atoms: _338  and  _340
REMARK  127  A    between atoms: _340  and  _341
REMARK  128  A    between atoms: _340  and  _343
REMARK  129  A    between atoms: _343  and  _344
REMARK  130  A    between atoms: _344  and  _345
REMARK  131  A    between atoms: _350  and  _352
REMARK  132  A    between atoms: _352  and  _353
REMARK  133  A    between atoms: _352  and  _355
REMARK  134  A    between atoms: _355  and  _356
REMARK  135  A    between atoms: _366  and  _368
REMARK  136  A    between atoms: _368  and  _369
REMARK  137  A    between atoms: _371  and  _373
REMARK  138  A    between atoms: _373  and  _374
REMARK  139  A    between atoms: _373  and  _376
REMARK  140  A    between atoms: _376  and  _377
REMARK                            x       y       z     vdW  Elec       q    Type
REMARK                         _______ _______ _______ _____ _____    ______ ____
ROOT
ATOM      1  CG  TYR A   1      26.100   6.166  49.526  0.00  0.00    -0.020 A 
ATOM      2  CD2 TYR A   1      26.222   6.084  50.933  0.00  0.00    -0.001 A 
ATOM      3  CE2 TYR A   1      27.420   6.418  51.582  0.00  0.00    +0.036 A 
ATOM      4  CZ  TYR A   1      28.512   6.828  50.839  0.00  0.00    +0.134 A 
ATOM      5  CE1 TYR A   1      28.438   6.874  49.421  0.00  0.00    +0.036 A 
ATOM      6  CD1 TYR A   1      27.245   6.552  48.799  0.00  0.00    -0.001 A 
ENDROOT
BRANCH   4   7
ATOM      7  OH  TYR A   1      29.662   7.199  51.464  0.00  0.00    -0.506 OA
ATOM      8  HH  TYR A   1      29.478   7.966  52.062  0.00  0.00    +0.292 HD
ENDBRANCH   4   7
BRANCH   1   9
ATOM      9  CB  TYR A   1      24.810   5.792  48.844  0.00  0.00    +0.051 C 
BRANCH   9  10
ATOM     10  CA  TYR A   1      24.053   6.936  48.150  0.00  0.00    +0.137 C 
BRANCH  10  11
ATOM     11  N   TYR A   1      23.055   6.398  47.262  0.00  0.00    -0.239 NA
ATOM     12  H   TYR A   1      23.142   5.406  46.962  0.00  0.00    +0.142 HD
ENDBRANCH  10  11
BRANCH  10  13
ATOM     13  C   TYR A   1      25.005   7.664  47.245  0.00  0.00    +0.224 C 
ATOM     14  O   TYR A   1      25.366   7.120  46.215  0.00  0.00    -0.287 OA
ENDBRANCH  10  13
ENDBRANCH   9  10
ENDBRANCH   1   9
TORSDOF 5
REMARK  Name = ../refined-set-2016/4pcs/4pcs_pocket.pdb
REMARK  140 active torsions:
REMARK  status: ('A' for Active; 'I' for Inactive)
REMARK    1  A    between atoms: _1  and  _3
REMARK    2  A    between atoms: _3  and  _4
REMARK    3  A    between atoms: _3  and  _6
REMARK    4  A    between atoms: _6  and  _7
REMARK    5  A    between atoms: _13  and  _15
REMARK    6  A    between atoms: _15  and  _16
REMARK    7  A    between atoms: _15  and  _18
REMARK    8  A    between atoms: _18  and  _19
REMARK    9  A    between atoms: _22  and  _24
REMARK   10  A    between atoms: _24  and  _25
REMARK   11  A    between atoms: _24  and  _27
REMARK   12  A    between atoms: _27  and  _28
REMARK   13  A    between atoms: _33  and  _35
REMARK   14  A    between atoms: _35  and  _36
REMARK   15  A    between atoms: _35  and  _38
REMARK   16  A    between atoms: _38  and  _39
REMARK   17  A    between atoms: _44  and  _45
REMARK   18  A    between atoms: _47  and  _49
REMARK   19  A    between atoms: _49  and  _50
REMARK   20  A    between atoms: _53  and  _55
REMARK   21  A    between atoms: _55  and  _56
REMARK   22  A    between atoms: _59  and  _61
REMARK   23  A    between atoms: _61  and  _62
REMARK   24  A    between atoms: _61  and  _64
REMARK   25  A    between atoms: _64  and  _65
REMARK   26  A    between atoms: _65  and  _66
REMARK   27  A    between atoms: _69  and  _71
REMARK   28  A    between atoms: _71  and  _72
REMARK   29  A    between atoms: _71  and  _74
REMARK   30  A    between atoms: _74  and  _75
REMARK   31  A    between atoms: _85  and  _87
REMARK   32  A    between atoms: _87  and  _88
REMARK   33  A    between atoms: _87  and  _90
REMARK   34  A    between atoms: _90  and  _91
REMARK   35  A    between atoms: _93  and  _95
REMARK   36  A    between atoms: _95  and  _96
REMARK   37  A    between atoms: _95  and  _98
REMARK   38  A    between atoms: _98  and  _99
REMARK   39  A    between atoms: _109  and  _111
REMARK   40  A    between atoms: _111  and  _112
REMARK   41  A    between atoms: _111  and  _114
REMARK   42  A    between atoms: _114  and  _115
REMARK   43  A    between atoms: _118  and  _120
REMARK   44  A    between atoms: _120  and  _121
REMARK   45  A    between atoms: _120  and  _123
REMARK   46  A    between atoms: _123  and  _124
REMARK   47  A    between atoms: _124  and  _125
REMARK   48  A    between atoms: _125  and  _126
REMARK   49  A    between atoms: _126  and  _127
REMARK   50  A    between atoms: _131  and  _133
REMARK   51  A    between atoms: _133  and  _134
REMARK   52  A    between atoms: _133  and  _136
REMARK   53  A    between atoms: _136  and  _137
REMARK   54  A    between atoms: _142  and  _144
REMARK   55  A    between atoms: _144  and  _145
REMARK   56  A    between atoms: _144  and  _147
REMARK   57  A    between atoms: _147  and  _148
REMARK   58  A    between atoms: _153  and  _155
REMARK   59  A    between atoms: _155  and  _156
REMARK   60  A    between atoms: _155  and  _158
REMARK   61  A    between atoms: _158  and  _159
REMARK   62  A    between atoms: _164  and  _165
REMARK   63  A    between atoms: _167  and  _169
REMARK   64  A    between atoms: _169  and  _170
REMARK   65  A    between atoms: _169  and  _172
REMARK   66  A    between atoms: _172  and  _173
REMARK   67  A    between atoms: _175  and  _177
REMARK   68  A    between atoms: _177  and  _178
REMARK   69  A    between atoms: _177  and  _180
REMARK   70  A    between atoms: _181  and  _182
REMARK   71  A    between atoms: _184  and  _186
REMARK   72  A    between atoms: _186  and  _187
REMARK   73  A    between atoms: _186  and  _189
REMARK   74  A    between atoms: _189  and  _190
REMARK   75  A    between atoms: _200  and  _202
REMARK   76  A    between atoms: _202  and  _203
REMARK   77  A    between atoms: _202  and  _205
REMARK   78  A    between atoms: _205  and  _206
REMARK   79  A    between atoms: _216  and  _218
REMARK   80  A    between atoms: _218  and  _219
REMARK   81  A    between atoms: _218  and  _221
REMARK   82  A    between atoms: _221  and  _222
REMARK   83  A    between atoms: _228  and  _230
REMARK   84  A    between atoms: _230  and  _231
REMARK   85  A    between atoms: _230  and  _233
REMARK   86  A    between atoms: _233  and  _234
REMARK   87  A    between atoms: _237  and  _239
REMARK   88  A    between atoms: _239  and  _240
REMARK   89  A    between atoms: _242  and  _244
REMARK   90  A    between atoms: _244  and  _245
REMARK   91  A    between atoms: _244  and  _247
REMARK   92  A    between atoms: _247  and  _248
REMARK   93  A    between atoms: _258  and  _260
REMARK   94  A    between atoms: _260  and  _261
REMARK   95  A    between atoms: _260  and  _263
REMARK   96  A    between atoms: _263  and  _264
REMARK   97  A    between atoms: _264  and  _265
REMARK   98  A    between atoms: _265  and  _266
REMARK   99  A    between atoms: _275  and  _277
REMARK  100  A    between atoms: _277  and  _278
REMARK  101  A    between atoms: _277  and  _280
REMARK  102  A    between atoms: _280  and  _281
REMARK  103  A    between atoms: _281  and  _282
REMARK  104  A    between atoms: _285  and  _287
REMARK  105  A    between atoms: _287  and  _288
REMARK  106  A    between atoms: _287  and  _290
REMARK  107  A    between atoms: _290  and  _291
REMARK  108  A    between atoms: _291  and  _292
REMARK  109  A    between atoms: _292  and  _293
REMARK  110  A    between atoms: _302  and  _304
REMARK  111  A    between atoms: _304  and  _305
REMARK  112  A    between atoms: _304  and  _307
REMARK  113  A    between atoms: _309  and  _311
REMARK  114  A    between atoms: _311  and  _312
REMARK  115  A    between atoms: _311  and  _314
REMARK  116  A    between atoms: _314  and  _315
REMARK  117  A    between atoms: _315  and  _316
REMARK  118  A    between atoms: _318  and  _320
REMARK  119  A    between atoms: _320  and  _321
REMARK  120  A    between atoms: _320  and  _323
REMARK  121  A    between atoms: _323  and  _324
REMARK  122  A    between atoms: _327  and  _329
REMARK  123  A    between atoms: _329  and  _330
REMARK  124  A    between atoms: _329  and  _332
REMARK  125  A    between atoms: _332  and  _333
REMARK  126  A    between atoms: _338  and  _340
REMARK  127  A    between atoms: _340  and  _341
REMARK  128  A    between atoms: _340  and  _343
REMARK  129  A    between atoms: _343  and  _344
REMARK  130  A    between atoms: _344  and  _345
REMARK  131  A    between atoms: _350  and  _352
REMARK  132  A    between atoms: _352  and  _353
REMARK  133  A    between atoms: _352  and  _355
REMARK  134  A    between atoms: _355  and  _356
REMARK  135  A    between atoms: _366  and  _368
REMARK  136  A    between atoms: _368  and  _369
REMARK  137  A    between atoms: _371  and  _373
REMARK  138  A    between atoms: _373  and  _374
REMARK  139  A    between atoms: _373  and  _376
REMARK  140  A    between atoms: _376  and  _377
REMARK                            x       y       z     vdW  Elec       q    Type
REMARK                         _______ _______ _______ _____ _____    ______ ____
ROOT
ATOM      1  CA  SER A   1      29.644  10.747  48.454  0.00  0.00    +0.163 C 
ENDROOT
BRANCH   1   2
ATOM      2  N   SER A   1      28.650  10.074  47.701  0.00  0.00    -0.237 NA
ATOM      3  H   SER A   1      28.938   9.331  47.032  0.00  0.00    +0.142 HD
ENDBRANCH   1   2
BRANCH   1   4
ATOM      4  CB  SER A   1      30.090  12.056  47.792  0.00  0.00    +0.227 C 
ATOM      5  OG  SER A   1      30.723  12.046  46.747  0.00  0.00    -0.287 OA
ENDBRANCH   1   4
BRANCH   1   6
ATOM      6  C   SER A   1      30.873   9.854  48.587  0.00  0.00    +0.162 C 
BRANCH   6   7
ATOM      7  O   SER A   1      31.889  10.550  49.341  0.00  0.00    -0.380 OA
ATOM      8  H   SER A   1      32.135  11.385  48.869  0.00  0.00    +0.211 HD
ENDBRANCH   6   7
ENDBRANCH   1   6
TORSDOF 4
REMARK  Name = ../refined-set-2016/4pcs/4pcs_pocket.pdb
REMARK  140 active torsions:
REMARK  status: ('A' for Active; 'I' for Inactive)
REMARK    1  A    between atoms: _1  and  _3
REMARK    2  A    between atoms: _3  and  _4
REMARK    3  A    between atoms: _3  and  _6
REMARK    4  A    between atoms: _6  and  _7
REMARK    5  A    between atoms: _13  and  _15
REMARK    6  A    between atoms: _15  and  _16
REMARK    7  A    between atoms: _15  and  _18
REMARK    8  A    between atoms: _18  and  _19
REMARK    9  A    between atoms: _22  and  _24
REMARK   10  A    between atoms: _24  and  _25
REMARK   11  A    between atoms: _24  and  _27
REMARK   12  A    between atoms: _27  and  _28
REMARK   13  A    between atoms: _33  and  _35
REMARK   14  A    between atoms: _35  and  _36
REMARK   15  A    between atoms: _35  and  _38
REMARK   16  A    between atoms: _38  and  _39
REMARK   17  A    between atoms: _44  and  _45
REMARK   18  A    between atoms: _47  and  _49
REMARK   19  A    between atoms: _49  and  _50
REMARK   20  A    between atoms: _53  and  _55
REMARK   21  A    between atoms: _55  and  _56
REMARK   22  A    between atoms: _59  and  _61
REMARK   23  A    between atoms: _61  and  _62
REMARK   24  A    between atoms: _61  and  _64
REMARK   25  A    between atoms: _64  and  _65
REMARK   26  A    between atoms: _65  and  _66
REMARK   27  A    between atoms: _69  and  _71
REMARK   28  A    between atoms: _71  and  _72
REMARK   29  A    between atoms: _71  and  _74
REMARK   30  A    between atoms: _74  and  _75
REMARK   31  A    between atoms: _85  and  _87
REMARK   32  A    between atoms: _87  and  _88
REMARK   33  A    between atoms: _87  and  _90
REMARK   34  A    between atoms: _90  and  _91
REMARK   35  A    between atoms: _93  and  _95
REMARK   36  A    between atoms: _95  and  _96
REMARK   37  A    between atoms: _95  and  _98
REMARK   38  A    between atoms: _98  and  _99
REMARK   39  A    between atoms: _109  and  _111
REMARK   40  A    between atoms: _111  and  _112
REMARK   41  A    between atoms: _111  and  _114
REMARK   42  A    between atoms: _114  and  _115
REMARK   43  A    between atoms: _118  and  _120
REMARK   44  A    between atoms: _120  and  _121
REMARK   45  A    between atoms: _120  and  _123
REMARK   46  A    between atoms: _123  and  _124
REMARK   47  A    between atoms: _124  and  _125
REMARK   48  A    between atoms: _125  and  _126
REMARK   49  A    between atoms: _126  and  _127
REMARK   50  A    between atoms: _131  and  _133
REMARK   51  A    between atoms: _133  and  _134
REMARK   52  A    between atoms: _133  and  _136
REMARK   53  A    between atoms: _136  and  _137
REMARK   54  A    between atoms: _142  and  _144
REMARK   55  A    between atoms: _144  and  _145
REMARK   56  A    between atoms: _144  and  _147
REMARK   57  A    between atoms: _147  and  _148
REMARK   58  A    between atoms: _153  and  _155
REMARK   59  A    between atoms: _155  and  _156
REMARK   60  A    between atoms: _155  and  _158
REMARK   61  A    between atoms: _158  and  _159
REMARK   62  A    between atoms: _164  and  _165
REMARK   63  A    between atoms: _167  and  _169
REMARK   64  A    between atoms: _169  and  _170
REMARK   65  A    between atoms: _169  and  _172
REMARK   66  A    between atoms: _172  and  _173
REMARK   67  A    between atoms: _175  and  _177
REMARK   68  A    between atoms: _177  and  _178
REMARK   69  A    between atoms: _177  and  _180
REMARK   70  A    between atoms: _181  and  _182
REMARK   71  A    between atoms: _184  and  _186
REMARK   72  A    between atoms: _186  and  _187
REMARK   73  A    between atoms: _186  and  _189
REMARK   74  A    between atoms: _189  and  _190
REMARK   75  A    between atoms: _200  and  _202
REMARK   76  A    between atoms: _202  and  _203
REMARK   77  A    between atoms: _202  and  _205
REMARK   78  A    between atoms: _205  and  _206
REMARK   79  A    between atoms: _216  and  _218
REMARK   80  A    between atoms: _218  and  _219
REMARK   81  A    between atoms: _218  and  _221
REMARK   82  A    between atoms: _221  and  _222
REMARK   83  A    between atoms: _228  and  _230
REMARK   84  A    between atoms: _230  and  _231
REMARK   85  A    between atoms: _230  and  _233
REMARK   86  A    between atoms: _233  and  _234
REMARK   87  A    between atoms: _237  and  _239
REMARK   88  A    between atoms: _239  and  _240
REMARK   89  A    between atoms: _242  and  _244
REMARK   90  A    between atoms: _244  and  _245
REMARK   91  A    between atoms: _244  and  _247
REMARK   92  A    between atoms: _247  and  _248
REMARK   93  A    between atoms: _258  and  _260
REMARK   94  A    between atoms: _260  and  _261
REMARK   95  A    between atoms: _260  and  _263
REMARK   96  A    between atoms: _263  and  _264
REMARK   97  A    between atoms: _264  and  _265
REMARK   98  A    between atoms: _265  and  _266
REMARK   99  A    between atoms: _275  and  _277
REMARK  100  A    between atoms: _277  and  _278
REMARK  101  A    between atoms: _277  and  _280
REMARK  102  A    between atoms: _280  and  _281
REMARK  103  A    between atoms: _281  and  _282
REMARK  104  A    between atoms: _285  and  _287
REMARK  105  A    between atoms: _287  and  _288
REMARK  106  A    between atoms: _287  and  _290
REMARK  107  A    between atoms: _290  and  _291
REMARK  108  A    between atoms: _291  and  _292
REMARK  109  A    between atoms: _292  and  _293
REMARK  110  A    between atoms: _302  and  _304
REMARK  111  A    between atoms: _304  and  _305
REMARK  112  A    between atoms: _304  and  _307
REMARK  113  A    between atoms: _309  and  _311
REMARK  114  A    between atoms: _311  and  _312
REMARK  115  A    between atoms: _311  and  _314
REMARK  116  A    between atoms: _314  and  _315
REMARK  117  A    between atoms: _315  and  _316
REMARK  118  A    between atoms: _318  and  _320
REMARK  119  A    between atoms: _320  and  _321
REMARK  120  A    between atoms: _320  and  _323
REMARK  121  A    between atoms: _323  and  _324
REMARK  122  A    between atoms: _327  and  _329
REMARK  123  A    between atoms: _329  and  _330
REMARK  124  A    between atoms: _329  and  _332
REMARK  125  A    between atoms: _332  and  _333
REMARK  126  A    between atoms: _338  and  _340
REMARK  127  A    between atoms: _340  and  _341
REMARK  128  A    between atoms: _340  and  _343
REMARK  129  A    between atoms: _343  and  _344
REMARK  130  A    between atoms: _344  and  _345
REMARK  131  A    between atoms: _350  and  _352
REMARK  132  A    between atoms: _352  and  _353
REMARK  133  A    between atoms: _352  and  _355
REMARK  134  A    between atoms: _355  and  _356
REMARK  135  A    between atoms: _366  and  _368
REMARK  136  A    between atoms: _368  and  _369
REMARK  137  A    between atoms: _371  and  _373
REMARK  138  A    between atoms: _373  and  _374
REMARK  139  A    between atoms: _373  and  _376
REMARK  140  A    between atoms: _376  and  _377
REMARK                            x       y       z     vdW  Elec       q    Type
REMARK                         _______ _______ _______ _____ _____    ______ ____
ROOT
ATOM      1  CA  MET A   1      33.933  14.019  49.192  0.00  0.00    +0.156 C 
ENDROOT
BRANCH   1   2
ATOM      2  N   MET A   1      32.481  14.189  49.126  0.00  0.00    -0.235 NA
ATOM      3  H   MET A   1      31.918  14.097  49.995  0.00  0.00    +0.142 HD
ENDBRANCH   1   2
BRANCH   1   4
ATOM      4  CB  MET A   1      34.361  13.546  50.594  0.00  0.00    +0.005 C 
ATOM      5  CG  MET A   1      35.865  13.334  50.781  0.00  0.00    +0.028 C 
BRANCH   5   6
ATOM      6  SD  MET A   1      36.450  13.110  52.490  0.00  0.00    -0.113 S 
ATOM      7  CE  MET A   1      35.833  11.466  52.826  0.00  0.00    +0.074 C 
ENDBRANCH   5   6
ENDBRANCH   1   4
BRANCH   1   8
ATOM      8  C   MET A   1      34.379  12.999  48.150  0.00  0.00    +0.229 C 
ATOM      9  O   MET A   1      33.775  11.925  48.009  0.00  0.00    -0.286 OA
ENDBRANCH   1   8
TORSDOF 4
REMARK  Name = ../refined-set-2016/4pcs/4pcs_pocket.pdb
REMARK  140 active torsions:
REMARK  status: ('A' for Active; 'I' for Inactive)
REMARK    1  A    between atoms: _1  and  _3
REMARK    2  A    between atoms: _3  and  _4
REMARK    3  A    between atoms: _3  and  _6
REMARK    4  A    between atoms: _6  and  _7
REMARK    5  A    between atoms: _13  and  _15
REMARK    6  A    between atoms: _15  and  _16
REMARK    7  A    between atoms: _15  and  _18
REMARK    8  A    between atoms: _18  and  _19
REMARK    9  A    between atoms: _22  and  _24
REMARK   10  A    between atoms: _24  and  _25
REMARK   11  A    between atoms: _24  and  _27
REMARK   12  A    between atoms: _27  and  _28
REMARK   13  A    between atoms: _33  and  _35
REMARK   14  A    between atoms: _35  and  _36
REMARK   15  A    between atoms: _35  and  _38
REMARK   16  A    between atoms: _38  and  _39
REMARK   17  A    between atoms: _44  and  _45
REMARK   18  A    between atoms: _47  and  _49
REMARK   19  A    between atoms: _49  and  _50
REMARK   20  A    between atoms: _53  and  _55
REMARK   21  A    between atoms: _55  and  _56
REMARK   22  A    between atoms: _59  and  _61
REMARK   23  A    between atoms: _61  and  _62
REMARK   24  A    between atoms: _61  and  _64
REMARK   25  A    between atoms: _64  and  _65
REMARK   26  A    between atoms: _65  and  _66
REMARK   27  A    between atoms: _69  and  _71
REMARK   28  A    between atoms: _71  and  _72
REMARK   29  A    between atoms: _71  and  _74
REMARK   30  A    between atoms: _74  and  _75
REMARK   31  A    between atoms: _85  and  _87
REMARK   32  A    between atoms: _87  and  _88
REMARK   33  A    between atoms: _87  and  _90
REMARK   34  A    between atoms: _90  and  _91
REMARK   35  A    between atoms: _93  and  _95
REMARK   36  A    between atoms: _95  and  _96
REMARK   37  A    between atoms: _95  and  _98
REMARK   38  A    between atoms: _98  and  _99
REMARK   39  A    between atoms: _109  and  _111
REMARK   40  A    between atoms: _111  and  _112
REMARK   41  A    between atoms: _111  and  _114
REMARK   42  A    between atoms: _114  and  _115
REMARK   43  A    between atoms: _118  and  _120
REMARK   44  A    between atoms: _120  and  _121
REMARK   45  A    between atoms: _120  and  _123
REMARK   46  A    between atoms: _123  and  _124
REMARK   47  A    between atoms: _124  and  _125
REMARK   48  A    between atoms: _125  and  _126
REMARK   49  A    between atoms: _126  and  _127
REMARK   50  A    between atoms: _131  and  _133
REMARK   51  A    between atoms: _133  and  _134
REMARK   52  A    between atoms: _133  and  _136
REMARK   53  A    between atoms: _136  and  _137
REMARK   54  A    between atoms: _142  and  _144
REMARK   55  A    between atoms: _144  and  _145
REMARK   56  A    between atoms: _144  and  _147
REMARK   57  A    between atoms: _147  and  _148
REMARK   58  A    between atoms: _153  and  _155
REMARK   59  A    between atoms: _155  and  _156
REMARK   60  A    between atoms: _155  and  _158
REMARK   61  A    between atoms: _158  and  _159
REMARK   62  A    between atoms: _164  and  _165
REMARK   63  A    between atoms: _167  and  _169
REMARK   64  A    between atoms: _169  and  _170
REMARK   65  A    between atoms: _169  and  _172
REMARK   66  A    between atoms: _172  and  _173
REMARK   67  A    between atoms: _175  and  _177
REMARK   68  A    between atoms: _177  and  _178
REMARK   69  A    between atoms: _177  and  _180
REMARK   70  A    between atoms: _181  and  _182
REMARK   71  A    between atoms: _184  and  _186
REMARK   72  A    between atoms: _186  and  _187
REMARK   73  A    between atoms: _186  and  _189
REMARK   74  A    between atoms: _189  and  _190
REMARK   75  A    between atoms: _200  and  _202
REMARK   76  A    between atoms: _202  and  _203
REMARK   77  A    between atoms: _202  and  _205
REMARK   78  A    between atoms: _205  and  _206
REMARK   79  A    between atoms: _216  and  _218
REMARK   80  A    between atoms: _218  and  _219
REMARK   81  A    between atoms: _218  and  _221
REMARK   82  A    between atoms: _221  and  _222
REMARK   83  A    between atoms: _228  and  _230
REMARK   84  A    between atoms: _230  and  _231
REMARK   85  A    between atoms: _230  and  _233
REMARK   86  A    between atoms: _233  and  _234
REMARK   87  A    between atoms: _237  and  _239
REMARK   88  A    between atoms: _239  and  _240
REMARK   89  A    between atoms: _242  and  _244
REMARK   90  A    between atoms: _244  and  _245
REMARK   91  A    between atoms: _244  and  _247
REMARK   92  A    between atoms: _247  and  _248
REMARK   93  A    between atoms: _258  and  _260
REMARK   94  A    between atoms: _260  and  _261
REMARK   95  A    between atoms: _260  and  _263
REMARK   96  A    between atoms: _263  and  _264
REMARK   97  A    between atoms: _264  and  _265
REMARK   98  A    between atoms: _265  and  _266
REMARK   99  A    between atoms: _275  and  _277
REMARK  100  A    between atoms: _277  and  _278
REMARK  101  A    between atoms: _277  and  _280
REMARK  102  A    between atoms: _280  and  _281
REMARK  103  A    between atoms: _281  and  _282
REMARK  104  A    between atoms: _285  and  _287
REMARK  105  A    between atoms: _287  and  _288
REMARK  106  A    between atoms: _287  and  _290
REMARK  107  A    between atoms: _290  and  _291
REMARK  108  A    between atoms: _291  and  _292
REMARK  109  A    between atoms: _292  and  _293
REMARK  110  A    between atoms: _302  and  _304
REMARK  111  A    between atoms: _304  and  _305
REMARK  112  A    between atoms: _304  and  _307
REMARK  113  A    between atoms: _309  and  _311
REMARK  114  A    between atoms: _311  and  _312
REMARK  115  A    between atoms: _311  and  _314
REMARK  116  A    between atoms: _314  and  _315
REMARK  117  A    between atoms: _315  and  _316
REMARK  118  A    between atoms: _318  and  _320
REMARK  119  A    between atoms: _320  and  _321
REMARK  120  A    between atoms: _320  and  _323
REMARK  121  A    between atoms: _323  and  _324
REMARK  122  A    between atoms: _327  and  _329
REMARK  123  A    between atoms: _329  and  _330
REMARK  124  A    between atoms: _329  and  _332
REMARK  125  A    between atoms: _332  and  _333
REMARK  126  A    between atoms: _338  and  _340
REMARK  127  A    between atoms: _340  and  _341
REMARK  128  A    between atoms: _340  and  _343
REMARK  129  A    between atoms: _343  and  _344
REMARK  130  A    between atoms: _344  and  _345
REMARK  131  A    between atoms: _350  and  _352
REMARK  132  A    between atoms: _352  and  _353
REMARK  133  A    between atoms: _352  and  _355
REMARK  134  A    between atoms: _355  and  _356
REMARK  135  A    between atoms: _366  and  _368
REMARK  136  A    between atoms: _368  and  _369
REMARK  137  A    between atoms: _371  and  _373
REMARK  138  A    between atoms: _373  and  _374
REMARK  139  A    between atoms: _373  and  _376
REMARK  140  A    between atoms: _376  and  _377
REMARK                            x       y       z     vdW  Elec       q    Type
REMARK                         _______ _______ _______ _____ _____    ______ ____
ROOT
ATOM      1  CG  TRP A   1      39.472  10.158  48.934  0.00  0.00    -0.002 A 
ATOM      2  CD2 TRP A   1      39.234   9.038  49.810  0.00  0.00    +0.013 A 
ATOM      3  CE2 TRP A   1      38.925   9.563  51.078  0.00  0.00    +0.056 A 
ATOM      4  CZ2 TRP A   1      38.609   8.740  52.158  0.00  0.00    +0.017 A 
ATOM      5  CH2 TRP A   1      38.625   7.371  51.954  0.00  0.00    +0.001 A 
ATOM      6  CZ3 TRP A   1      38.941   6.824  50.725  0.00  0.00    +0.000 A 
ATOM      7  NE1 TRP A   1      38.978  10.936  50.987  0.00  0.00    -0.352 N 
ATOM      8  HE1 TRP A   1      38.784  11.599  51.764  0.00  0.00    +0.166 HD
ATOM      9  CE3 TRP A   1      39.242   7.643  49.639  0.00  0.00    +0.001 A 
ATOM     10  CD1 TRP A   1      39.327  11.291  49.709  0.00  0.00    +0.068 A 
ENDROOT
BRANCH   1  11
ATOM     11  CB  TRP A   1      39.858  10.091  47.448  0.00  0.00    +0.053 C 
BRANCH  11  12
ATOM     12  CA  TRP A   1      39.459  11.328  46.622  0.00  0.00    +0.137 C 
BRANCH  12  13
ATOM     13  N   TRP A   1      38.026  11.453  46.603  0.00  0.00    -0.239 NA
ATOM     14  H   TRP A   1      37.451  10.636  46.892  0.00  0.00    +0.142 HD
ENDBRANCH  12  13
BRANCH  12  15
ATOM     15  C   TRP A   1      40.105  11.189  45.227  0.00  0.00    +0.224 C 
ATOM     16  O   TRP A   1      41.341  11.118  45.134  0.00  0.00    -0.287 OA
ENDBRANCH  12  15
ENDBRANCH  11  12
ENDBRANCH   1  11
TORSDOF 4
REMARK  Name = ../refined-set-2016/4pcs/4pcs_pocket.pdb
REMARK  140 active torsions:
REMARK  status: ('A' for Active; 'I' for Inactive)
REMARK    1  A    between atoms: _1  and  _3
REMARK    2  A    between atoms: _3  and  _4
REMARK    3  A    between atoms: _3  and  _6
REMARK    4  A    between atoms: _6  and  _7
REMARK    5  A    between atoms: _13  and  _15
REMARK    6  A    between atoms: _15  and  _16
REMARK    7  A    between atoms: _15  and  _18
REMARK    8  A    between atoms: _18  and  _19
REMARK    9  A    between atoms: _22  and  _24
REMARK   10  A    between atoms: _24  and  _25
REMARK   11  A    between atoms: _24  and  _27
REMARK   12  A    between atoms: _27  and  _28
REMARK   13  A    between atoms: _33  and  _35
REMARK   14  A    between atoms: _35  and  _36
REMARK   15  A    between atoms: _35  and  _38
REMARK   16  A    between atoms: _38  and  _39
REMARK   17  A    between atoms: _44  and  _45
REMARK   18  A    between atoms: _47  and  _49
REMARK   19  A    between atoms: _49  and  _50
REMARK   20  A    between atoms: _53  and  _55
REMARK   21  A    between atoms: _55  and  _56
REMARK   22  A    between atoms: _59  and  _61
REMARK   23  A    between atoms: _61  and  _62
REMARK   24  A    between atoms: _61  and  _64
REMARK   25  A    between atoms: _64  and  _65
REMARK   26  A    between atoms: _65  and  _66
REMARK   27  A    between atoms: _69  and  _71
REMARK   28  A    between atoms: _71  and  _72
REMARK   29  A    between atoms: _71  and  _74
REMARK   30  A    between atoms: _74  and  _75
REMARK   31  A    between atoms: _85  and  _87
REMARK   32  A    between atoms: _87  and  _88
REMARK   33  A    between atoms: _87  and  _90
REMARK   34  A    between atoms: _90  and  _91
REMARK   35  A    between atoms: _93  and  _95
REMARK   36  A    between atoms: _95  and  _96
REMARK   37  A    between atoms: _95  and  _98
REMARK   38  A    between atoms: _98  and  _99
REMARK   39  A    between atoms: _109  and  _111
REMARK   40  A    between atoms: _111  and  _112
REMARK   41  A    between atoms: _111  and  _114
REMARK   42  A    between atoms: _114  and  _115
REMARK   43  A    between atoms: _118  and  _120
REMARK   44  A    between atoms: _120  and  _121
REMARK   45  A    between atoms: _120  and  _123
REMARK   46  A    between atoms: _123  and  _124
REMARK   47  A    between atoms: _124  and  _125
REMARK   48  A    between atoms: _125  and  _126
REMARK   49  A    between atoms: _126  and  _127
REMARK   50  A    between atoms: _131  and  _133
REMARK   51  A    between atoms: _133  and  _134
REMARK   52  A    between atoms: _133  and  _136
REMARK   53  A    between atoms: _136  and  _137
REMARK   54  A    between atoms: _142  and  _144
REMARK   55  A    between atoms: _144  and  _145
REMARK   56  A    between atoms: _144  and  _147
REMARK   57  A    between atoms: _147  and  _148
REMARK   58  A    between atoms: _153  and  _155
REMARK   59  A    between atoms: _155  and  _156
REMARK   60  A    between atoms: _155  and  _158
REMARK   61  A    between atoms: _158  and  _159
REMARK   62  A    between atoms: _164  and  _165
REMARK   63  A    between atoms: _167  and  _169
REMARK   64  A    between atoms: _169  and  _170
REMARK   65  A    between atoms: _169  and  _172
REMARK   66  A    between atoms: _172  and  _173
REMARK   67  A    between atoms: _175  and  _177
REMARK   68  A    between atoms: _177  and  _178
REMARK   69  A    between atoms: _177  and  _180
REMARK   70  A    between atoms: _181  and  _182
REMARK   71  A    between atoms: _184  and  _186
REMARK   72  A    between atoms: _186  and  _187
REMARK   73  A    between atoms: _186  and  _189
REMARK   74  A    between atoms: _189  and  _190
REMARK   75  A    between atoms: _200  and  _202
REMARK   76  A    between atoms: _202  and  _203
REMARK   77  A    between atoms: _202  and  _205
REMARK   78  A    between atoms: _205  and  _206
REMARK   79  A    between atoms: _216  and  _218
REMARK   80  A    between atoms: _218  and  _219
REMARK   81  A    between atoms: _218  and  _221
REMARK   82  A    between atoms: _221  and  _222
REMARK   83  A    between atoms: _228  and  _230
REMARK   84  A    between atoms: _230  and  _231
REMARK   85  A    between atoms: _230  and  _233
REMARK   86  A    between atoms: _233  and  _234
REMARK   87  A    between atoms: _237  and  _239
REMARK   88  A    between atoms: _239  and  _240
REMARK   89  A    between atoms: _242  and  _244
REMARK   90  A    between atoms: _244  and  _245
REMARK   91  A    between atoms: _244  and  _247
REMARK   92  A    between atoms: _247  and  _248
REMARK   93  A    between atoms: _258  and  _260
REMARK   94  A    between atoms: _260  and  _261
REMARK   95  A    between atoms: _260  and  _263
REMARK   96  A    between atoms: _263  and  _264
REMARK   97  A    between atoms: _264  and  _265
REMARK   98  A    between atoms: _265  and  _266
REMARK   99  A    between atoms: _275  and  _277
REMARK  100  A    between atoms: _277  and  _278
REMARK  101  A    between atoms: _277  and  _280
REMARK  102  A    between atoms: _280  and  _281
REMARK  103  A    between atoms: _281  and  _282
REMARK  104  A    between atoms: _285  and  _287
REMARK  105  A    between atoms: _287  and  _288
REMARK  106  A    between atoms: _287  and  _290
REMARK  107  A    between atoms: _290  and  _291
REMARK  108  A    between atoms: _291  and  _292
REMARK  109  A    between atoms: _292  and  _293
REMARK  110  A    between atoms: _302  and  _304
REMARK  111  A    between atoms: _304  and  _305
REMARK  112  A    between atoms: _304  and  _307
REMARK  113  A    between atoms: _309  and  _311
REMARK  114  A    between atoms: _311  and  _312
REMARK  115  A    between atoms: _311  and  _314
REMARK  116  A    between atoms: _314  and  _315
REMARK  117  A    between atoms: _315  and  _316
REMARK  118  A    between atoms: _318  and  _320
REMARK  119  A    between atoms: _320  and  _321
REMARK  120  A    between atoms: _320  and  _323
REMARK  121  A    between atoms: _323  and  _324
REMARK  122  A    between atoms: _327  and  _329
REMARK  123  A    between atoms: _329  and  _330
REMARK  124  A    between atoms: _329  and  _332
REMARK  125  A    between atoms: _332  and  _333
REMARK  126  A    between atoms: _338  and  _340
REMARK  127  A    between atoms: _340  and  _341
REMARK  128  A    between atoms: _340  and  _343
REMARK  129  A    between atoms: _343  and  _344
REMARK  130  A    between atoms: _344  and  _345
REMARK  131  A    between atoms: _350  and  _352
REMARK  132  A    between atoms: _352  and  _353
REMARK  133  A    between atoms: _352  and  _355
REMARK  134  A    between atoms: _355  and  _356
REMARK  135  A    between atoms: _366  and  _368
REMARK  136  A    between atoms: _368  and  _369
REMARK  137  A    between atoms: _371  and  _373
REMARK  138  A    between atoms: _373  and  _374
REMARK  139  A    between atoms: _373  and  _376
REMARK  140  A    between atoms: _376  and  _377
REMARK                            x       y       z     vdW  Elec       q    Type
REMARK                         _______ _______ _______ _____ _____    ______ ____
ROOT
ATOM      1  CA  PHE A   2      24.463  12.235  50.718  0.00  0.00    +0.153 C 
ENDROOT
BRANCH   1   3
ATOM      2  C   TRP A   1      22.902  10.400  50.444  0.00  0.00    +0.239 C 
ATOM      3  N   PHE A   2      23.118  11.667  50.771  0.00  0.00    -0.297 N 
ATOM      4  H   PHE A   2      22.320  12.264  51.069  0.00  0.00    +0.150 HD
ATOM      5  O   TRP A   1      23.780   9.633  50.086  0.00  0.00    -0.274 OA
BRANCH   2   6
ATOM      6  CA  TRP A   1      21.465   9.936  50.529  0.00  0.00    +0.149 C 
BRANCH   6   7
ATOM      7  N   TRP A   1      20.942   9.994  49.177  0.00  0.00    -0.238 NA
ATOM      8  H   TRP A   1      21.353   9.366  48.457  0.00  0.00    +0.142 HD
ENDBRANCH   6   7
BRANCH   6   9
ATOM      9  CB  TRP A   1      21.371   8.498  51.085  0.00  0.00    +0.054 C 
BRANCH   9  10
ATOM     10  CG  TRP A   1      21.519   8.412  52.603  0.00  0.00    -0.002 A 
ATOM     11  CD1 TRP A   1      20.525   8.552  53.531  0.00  0.00    +0.068 A 
ATOM     12  NE1 TRP A   1      21.059   8.440  54.790  0.00  0.00    -0.352 N 
ATOM     13  HE1 TRP A   1      20.527   8.532  55.679  0.00  0.00    +0.166 HD
ATOM     14  CE2 TRP A   1      22.407   8.187  54.692  0.00  0.00    +0.056 A 
ATOM     15  CZ2 TRP A   1      23.363   8.031  55.691  0.00  0.00    +0.017 A 
ATOM     16  CH2 TRP A   1      24.681   7.888  55.297  0.00  0.00    +0.001 A 
ATOM     17  CZ3 TRP A   1      25.030   7.834  53.954  0.00  0.00    +0.000 A 
ATOM     18  CE3 TRP A   1      24.083   8.064  52.966  0.00  0.00    +0.001 A 
ATOM     19  CD2 TRP A   1      22.739   8.217  53.337  0.00  0.00    +0.013 A 
ENDBRANCH   9  10
ENDBRANCH   6   9
ENDBRANCH   2   6
ENDBRANCH   1   3
BRANCH   1  20
ATOM     20  C   PHE A   2      25.298  11.884  51.962  0.00  0.00    +0.241 C 
ATOM     21  O   PHE A   2      24.774  11.803  53.049  0.00  0.00    -0.273 OA
ATOM     22  N   ASP A   3      26.578  11.608  51.734  0.00  0.00    -0.297 N 
ATOM     23  H   ASP A   3      26.887  11.625  50.741  0.00  0.00    +0.150 HD
BRANCH  22  24
ATOM     24  CA  ASP A   3      27.576  11.290  52.708  0.00  0.00    +0.160 C 
BRANCH  24  25
ATOM     25  C   ASP A   3      28.823  12.127  52.372  0.00  0.00    +0.241 C 
ATOM     26  N   GLY A   4      29.821  12.121  53.258  0.00  0.00    -0.296 N 
ATOM     27  H   GLY A   4      29.694  11.603  54.151  0.00  0.00    +0.150 HD
ATOM     28  O   ASP A   3      28.870  12.783  51.330  0.00  0.00    -0.273 OA
BRANCH  26  29
ATOM     29  CA  GLY A   4      31.080  12.811  53.022  0.00  0.00    +0.163 C 
BRANCH  29  30
ATOM     30  C   GLY A   4      30.903  14.319  52.846  0.00  0.00    +0.229 C 
ATOM     31  O   GLY A   4      31.555  14.911  51.989  0.00  0.00    -0.286 OA
ENDBRANCH  29  30
ENDBRANCH  26  29
ENDBRANCH  24  25
BRANCH  24  32
ATOM     32  CB  ASP A   3      27.946   9.810  52.654  0.00  0.00    +0.143 C 
BRANCH  32  33
ATOM     33  CG  ASP A   3      28.521   9.290  53.957  0.00  0.00    +0.367 C 
ATOM     34  OD2 ASP A   3      28.523  10.060  54.952  0.00  0.00    -0.246 OA
ATOM     35  OD1 ASP A   3      29.039   8.137  53.991  0.00  0.00    -0.246 OA
ENDBRANCH  32  33
ENDBRANCH  24  32
ENDBRANCH  22  24
ENDBRANCH   1  20
BRANCH   1  36
ATOM     36  CB  PHE A   2      24.360  13.723  50.568  0.00  0.00    +0.055 C 
BRANCH  36  37
ATOM     37  CG  PHE A   2      23.774  14.156  49.264  0.00  0.00    -0.020 A 
ATOM     38  CD2 PHE A   2      22.399  14.316  49.114  0.00  0.00    -0.004 A 
ATOM     39  CE2 PHE A   2      21.866  14.676  47.895  0.00  0.00    -0.000 A 
ATOM     40  CZ  PHE A   2      22.714  14.896  46.818  0.00  0.00    -0.000 A 
ATOM     41  CE1 PHE A   2      24.063  14.742  46.962  0.00  0.00    -0.000 A 
ATOM     42  CD1 PHE A   2      24.591  14.382  48.174  0.00  0.00    -0.004 A 
ENDBRANCH  36  37
ENDBRANCH   1  36
TORSDOF 14
REMARK  Name = ../refined-set-2016/4pcs/4pcs_pocket.pdb
REMARK  140 active torsions:
REMARK  status: ('A' for Active; 'I' for Inactive)
REMARK    1  A    between atoms: _1  and  _3
REMARK    2  A    between atoms: _3  and  _4
REMARK    3  A    between atoms: _3  and  _6
REMARK    4  A    between atoms: _6  and  _7
REMARK    5  A    between atoms: _13  and  _15
REMARK    6  A    between atoms: _15  and  _16
REMARK    7  A    between atoms: _15  and  _18
REMARK    8  A    between atoms: _18  and  _19
REMARK    9  A    between atoms: _22  and  _24
REMARK   10  A    between atoms: _24  and  _25
REMARK   11  A    between atoms: _24  and  _27
REMARK   12  A    between atoms: _27  and  _28
REMARK   13  A    between atoms: _33  and  _35
REMARK   14  A    between atoms: _35  and  _36
REMARK   15  A    between atoms: _35  and  _38
REMARK   16  A    between atoms: _38  and  _39
REMARK   17  A    between atoms: _44  and  _45
REMARK   18  A    between atoms: _47  and  _49
REMARK   19  A    between atoms: _49  and  _50
REMARK   20  A    between atoms: _53  and  _55
REMARK   21  A    between atoms: _55  and  _56
REMARK   22  A    between atoms: _59  and  _61
REMARK   23  A    between atoms: _61  and  _62
REMARK   24  A    between atoms: _61  and  _64
REMARK   25  A    between atoms: _64  and  _65
REMARK   26  A    between atoms: _65  and  _66
REMARK   27  A    between atoms: _69  and  _71
REMARK   28  A    between atoms: _71  and  _72
REMARK   29  A    between atoms: _71  and  _74
REMARK   30  A    between atoms: _74  and  _75
REMARK   31  A    between atoms: _85  and  _87
REMARK   32  A    between atoms: _87  and  _88
REMARK   33  A    between atoms: _87  and  _90
REMARK   34  A    between atoms: _90  and  _91
REMARK   35  A    between atoms: _93  and  _95
REMARK   36  A    between atoms: _95  and  _96
REMARK   37  A    between atoms: _95  and  _98
REMARK   38  A    between atoms: _98  and  _99
REMARK   39  A    between atoms: _109  and  _111
REMARK   40  A    between atoms: _111  and  _112
REMARK   41  A    between atoms: _111  and  _114
REMARK   42  A    between atoms: _114  and  _115
REMARK   43  A    between atoms: _118  and  _120
REMARK   44  A    between atoms: _120  and  _121
REMARK   45  A    between atoms: _120  and  _123
REMARK   46  A    between atoms: _123  and  _124
REMARK   47  A    between atoms: _124  and  _125
REMARK   48  A    between atoms: _125  and  _126
REMARK   49  A    between atoms: _126  and  _127
REMARK   50  A    between atoms: _131  and  _133
REMARK   51  A    between atoms: _133  and  _134
REMARK   52  A    between atoms: _133  and  _136
REMARK   53  A    between atoms: _136  and  _137
REMARK   54  A    between atoms: _142  and  _144
REMARK   55  A    between atoms: _144  and  _145
REMARK   56  A    between atoms: _144  and  _147
REMARK   57  A    between atoms: _147  and  _148
REMARK   58  A    between atoms: _153  and  _155
REMARK   59  A    between atoms: _155  and  _156
REMARK   60  A    between atoms: _155  and  _158
REMARK   61  A    between atoms: _158  and  _159
REMARK   62  A    between atoms: _164  and  _165
REMARK   63  A    between atoms: _167  and  _169
REMARK   64  A    between atoms: _169  and  _170
REMARK   65  A    between atoms: _169  and  _172
REMARK   66  A    between atoms: _172  and  _173
REMARK   67  A    between atoms: _175  and  _177
REMARK   68  A    between atoms: _177  and  _178
REMARK   69  A    between atoms: _177  and  _180
REMARK   70  A    between atoms: _181  and  _182
REMARK   71  A    between atoms: _184  and  _186
REMARK   72  A    between atoms: _186  and  _187
REMARK   73  A    between atoms: _186  and  _189
REMARK   74  A    between atoms: _189  and  _190
REMARK   75  A    between atoms: _200  and  _202
REMARK   76  A    between atoms: _202  and  _203
REMARK   77  A    between atoms: _202  and  _205
REMARK   78  A    between atoms: _205  and  _206
REMARK   79  A    between atoms: _216  and  _218
REMARK   80  A    between atoms: _218  and  _219
REMARK   81  A    between atoms: _218  and  _221
REMARK   82  A    between atoms: _221  and  _222
REMARK   83  A    between atoms: _228  and  _230
REMARK   84  A    between atoms: _230  and  _231
REMARK   85  A    between atoms: _230  and  _233
REMARK   86  A    between atoms: _233  and  _234
REMARK   87  A    between atoms: _237  and  _239
REMARK   88  A    between atoms: _239  and  _240
REMARK   89  A    between atoms: _242  and  _244
REMARK   90  A    between atoms: _244  and  _245
REMARK   91  A    between atoms: _244  and  _247
REMARK   92  A    between atoms: _247  and  _248
REMARK   93  A    between atoms: _258  and  _260
REMARK   94  A    between atoms: _260  and  _261
REMARK   95  A    between atoms: _260  and  _263
REMARK   96  A    between atoms: _263  and  _264
REMARK   97  A    between atoms: _264  and  _265
REMARK   98  A    between atoms: _265  and  _266
REMARK   99  A    between atoms: _275  and  _277
REMARK  100  A    between atoms: _277  and  _278
REMARK  101  A    between atoms: _277  and  _280
REMARK  102  A    between atoms: _280  and  _281
REMARK  103  A    between atoms: _281  and  _282
REMARK  104  A    between atoms: _285  and  _287
REMARK  105  A    between atoms: _287  and  _288
REMARK  106  A    between atoms: _287  and  _290
REMARK  107  A    between atoms: _290  and  _291
REMARK  108  A    between atoms: _291  and  _292
REMARK  109  A    between atoms: _292  and  _293
REMARK  110  A    between atoms: _302  and  _304
REMARK  111  A    between atoms: _304  and  _305
REMARK  112  A    between atoms: _304  and  _307
REMARK  113  A    between atoms: _309  and  _311
REMARK  114  A    between atoms: _311  and  _312
REMARK  115  A    between atoms: _311  and  _314
REMARK  116  A    between atoms: _314  and  _315
REMARK  117  A    between atoms: _315  and  _316
REMARK  118  A    between atoms: _318  and  _320
REMARK  119  A    between atoms: _320  and  _321
REMARK  120  A    between atoms: _320  and  _323
REMARK  121  A    between atoms: _323  and  _324
REMARK  122  A    between atoms: _327  and  _329
REMARK  123  A    between atoms: _329  and  _330
REMARK  124  A    between atoms: _329  and  _332
REMARK  125  A    between atoms: _332  and  _333
REMARK  126  A    between atoms: _338  and  _340
REMARK  127  A    between atoms: _340  and  _341
REMARK  128  A    between atoms: _340  and  _343
REMARK  129  A    between atoms: _343  and  _344
REMARK  130  A    between atoms: _344  and  _345
REMARK  131  A    between atoms: _350  and  _352
REMARK  132  A    between atoms: _352  and  _353
REMARK  133  A    between atoms: _352  and  _355
REMARK  134  A    between atoms: _355  and  _356
REMARK  135  A    between atoms: _366  and  _368
REMARK  136  A    between atoms: _368  and  _369
REMARK  137  A    between atoms: _371  and  _373
REMARK  138  A    between atoms: _373  and  _374
REMARK  139  A    between atoms: _373  and  _376
REMARK  140  A    between atoms: _376  and  _377
REMARK                            x       y       z     vdW  Elec       q    Type
REMARK                         _______ _______ _______ _____ _____    ______ ____
ROOT
ATOM      1  CG  TRP A   1      32.681  14.881  57.189  0.00  0.00    -0.002 A 
ATOM      2  CD1 TRP A   1      34.018  14.950  56.876  0.00  0.00    +0.068 A 
ATOM      3  NE1 TRP A   1      34.444  13.738  56.338  0.00  0.00    -0.352 N 
ATOM      4  CE2 TRP A   1      33.390  12.857  56.318  0.00  0.00    +0.056 A 
ATOM      5  CZ2 TRP A   1      33.331  11.527  55.866  0.00  0.00    +0.017 A 
ATOM      6  CH2 TRP A   1      32.126  10.872  55.956  0.00  0.00    +0.001 A 
ATOM      7  CZ3 TRP A   1      30.980  11.512  56.482  0.00  0.00    +0.000 A 
ATOM      8  CE3 TRP A   1      31.032  12.859  56.919  0.00  0.00    +0.001 A 
ATOM      9  HE1 TRP A   1      35.407  13.532  56.004  0.00  0.00    +0.166 HD
ATOM     10  CD2 TRP A   1      32.253  13.541  56.838  0.00  0.00    +0.013 A 
ENDROOT
BRANCH   1  11
ATOM     11  CB  TRP A   1      31.853  15.932  57.780  0.00  0.00    +0.053 C 
BRANCH  11  12
ATOM     12  CA  TRP A   1      31.477  17.064  56.812  0.00  0.00    +0.137 C 
BRANCH  12  13
ATOM     13  N   TRP A   1      31.096  16.528  55.510  0.00  0.00    -0.239 NA
ATOM     14  H   TRP A   1      31.567  15.674  55.150  0.00  0.00    +0.142 HD
ENDBRANCH  12  13
BRANCH  12  15
ATOM     15  C   TRP A   1      32.645  18.044  56.766  0.00  0.00    +0.224 C 
ATOM     16  O   TRP A   1      32.852  18.760  57.725  0.00  0.00    -0.287 OA
ENDBRANCH  12  15
ENDBRANCH  11  12
ENDBRANCH   1  11
TORSDOF 4
REMARK  Name = ../refined-set-2016/4pcs/4pcs_pocket.pdb
REMARK  140 active torsions:
REMARK  status: ('A' for Active; 'I' for Inactive)
REMARK    1  A    between atoms: _1  and  _3
REMARK    2  A    between atoms: _3  and  _4
REMARK    3  A    between atoms: _3  and  _6
REMARK    4  A    between atoms: _6  and  _7
REMARK    5  A    between atoms: _13  and  _15
REMARK    6  A    between atoms: _15  and  _16
REMARK    7  A    between atoms: _15  and  _18
REMARK    8  A    between atoms: _18  and  _19
REMARK    9  A    between atoms: _22  and  _24
REMARK   10  A    between atoms: _24  and  _25
REMARK   11  A    between atoms: _24  and  _27
REMARK   12  A    between atoms: _27  and  _28
REMARK   13  A    between atoms: _33  and  _35
REMARK   14  A    between atoms: _35  and  _36
REMARK   15  A    between atoms: _35  and  _38
REMARK   16  A    between atoms: _38  and  _39
REMARK   17  A    between atoms: _44  and  _45
REMARK   18  A    between atoms: _47  and  _49
REMARK   19  A    between atoms: _49  and  _50
REMARK   20  A    between atoms: _53  and  _55
REMARK   21  A    between atoms: _55  and  _56
REMARK   22  A    between atoms: _59  and  _61
REMARK   23  A    between atoms: _61  and  _62
REMARK   24  A    between atoms: _61  and  _64
REMARK   25  A    between atoms: _64  and  _65
REMARK   26  A    between atoms: _65  and  _66
REMARK   27  A    between atoms: _69  and  _71
REMARK   28  A    between atoms: _71  and  _72
REMARK   29  A    between atoms: _71  and  _74
REMARK   30  A    between atoms: _74  and  _75
REMARK   31  A    between atoms: _85  and  _87
REMARK   32  A    between atoms: _87  and  _88
REMARK   33  A    between atoms: _87  and  _90
REMARK   34  A    between atoms: _90  and  _91
REMARK   35  A    between atoms: _93  and  _95
REMARK   36  A    between atoms: _95  and  _96
REMARK   37  A    between atoms: _95  and  _98
REMARK   38  A    between atoms: _98  and  _99
REMARK   39  A    between atoms: _109  and  _111
REMARK   40  A    between atoms: _111  and  _112
REMARK   41  A    between atoms: _111  and  _114
REMARK   42  A    between atoms: _114  and  _115
REMARK   43  A    between atoms: _118  and  _120
REMARK   44  A    between atoms: _120  and  _121
REMARK   45  A    between atoms: _120  and  _123
REMARK   46  A    between atoms: _123  and  _124
REMARK   47  A    between atoms: _124  and  _125
REMARK   48  A    between atoms: _125  and  _126
REMARK   49  A    between atoms: _126  and  _127
REMARK   50  A    between atoms: _131  and  _133
REMARK   51  A    between atoms: _133  and  _134
REMARK   52  A    between atoms: _133  and  _136
REMARK   53  A    between atoms: _136  and  _137
REMARK   54  A    between atoms: _142  and  _144
REMARK   55  A    between atoms: _144  and  _145
REMARK   56  A    between atoms: _144  and  _147
REMARK   57  A    between atoms: _147  and  _148
REMARK   58  A    between atoms: _153  and  _155
REMARK   59  A    between atoms: _155  and  _156
REMARK   60  A    between atoms: _155  and  _158
REMARK   61  A    between atoms: _158  and  _159
REMARK   62  A    between atoms: _164  and  _165
REMARK   63  A    between atoms: _167  and  _169
REMARK   64  A    between atoms: _169  and  _170
REMARK   65  A    between atoms: _169  and  _172
REMARK   66  A    between atoms: _172  and  _173
REMARK   67  A    between atoms: _175  and  _177
REMARK   68  A    between atoms: _177  and  _178
REMARK   69  A    between atoms: _177  and  _180
REMARK   70  A    between atoms: _181  and  _182
REMARK   71  A    between atoms: _184  and  _186
REMARK   72  A    between atoms: _186  and  _187
REMARK   73  A    between atoms: _186  and  _189
REMARK   74  A    between atoms: _189  and  _190
REMARK   75  A    between atoms: _200  and  _202
REMARK   76  A    between atoms: _202  and  _203
REMARK   77  A    between atoms: _202  and  _205
REMARK   78  A    between atoms: _205  and  _206
REMARK   79  A    between atoms: _216  and  _218
REMARK   80  A    between atoms: _218  and  _219
REMARK   81  A    between atoms: _218  and  _221
REMARK   82  A    between atoms: _221  and  _222
REMARK   83  A    between atoms: _228  and  _230
REMARK   84  A    between atoms: _230  and  _231
REMARK   85  A    between atoms: _230  and  _233
REMARK   86  A    between atoms: _233  and  _234
REMARK   87  A    between atoms: _237  and  _239
REMARK   88  A    between atoms: _239  and  _240
REMARK   89  A    between atoms: _242  and  _244
REMARK   90  A    between atoms: _244  and  _245
REMARK   91  A    between atoms: _244  and  _247
REMARK   92  A    between atoms: _247  and  _248
REMARK   93  A    between atoms: _258  and  _260
REMARK   94  A    between atoms: _260  and  _261
REMARK   95  A    between atoms: _260  and  _263
REMARK   96  A    between atoms: _263  and  _264
REMARK   97  A    between atoms: _264  and  _265
REMARK   98  A    between atoms: _265  and  _266
REMARK   99  A    between atoms: _275  and  _277
REMARK  100  A    between atoms: _277  and  _278
REMARK  101  A    between atoms: _277  and  _280
REMARK  102  A    between atoms: _280  and  _281
REMARK  103  A    between atoms: _281  and  _282
REMARK  104  A    between atoms: _285  and  _287
REMARK  105  A    between atoms: _287  and  _288
REMARK  106  A    between atoms: _287  and  _290
REMARK  107  A    between atoms: _290  and  _291
REMARK  108  A    between atoms: _291  and  _292
REMARK  109  A    between atoms: _292  and  _293
REMARK  110  A    between atoms: _302  and  _304
REMARK  111  A    between atoms: _304  and  _305
REMARK  112  A    between atoms: _304  and  _307
REMARK  113  A    between atoms: _309  and  _311
REMARK  114  A    between atoms: _311  and  _312
REMARK  115  A    between atoms: _311  and  _314
REMARK  116  A    between atoms: _314  and  _315
REMARK  117  A    between atoms: _315  and  _316
REMARK  118  A    between atoms: _318  and  _320
REMARK  119  A    between atoms: _320  and  _321
REMARK  120  A    between atoms: _320  and  _323
REMARK  121  A    between atoms: _323  and  _324
REMARK  122  A    between atoms: _327  and  _329
REMARK  123  A    between atoms: _329  and  _330
REMARK  124  A    between atoms: _329  and  _332
REMARK  125  A    between atoms: _332  and  _333
REMARK  126  A    between atoms: _338  and  _340
REMARK  127  A    between atoms: _340  and  _341
REMARK  128  A    between atoms: _340  and  _343
REMARK  129  A    between atoms: _343  and  _344
REMARK  130  A    between atoms: _344  and  _345
REMARK  131  A    between atoms: _350  and  _352
REMARK  132  A    between atoms: _352  and  _353
REMARK  133  A    between atoms: _352  and  _355
REMARK  134  A    between atoms: _355  and  _356
REMARK  135  A    between atoms: _366  and  _368
REMARK  136  A    between atoms: _368  and  _369
REMARK  137  A    between atoms: _371  and  _373
REMARK  138  A    between atoms: _373  and  _374
REMARK  139  A    between atoms: _373  and  _376
REMARK  140  A    between atoms: _376  and  _377
REMARK                            x       y       z     vdW  Elec       q    Type
REMARK                         _______ _______ _______ _____ _____    ______ ____
ROOT
ATOM      1  NE  ARG A   1      25.142  11.129  57.360  0.00  0.00    -0.265 N 
ATOM      2  CZ  ARG A   1      25.651  10.009  57.888  0.00  0.00    +0.342 C 
ATOM      3  NH2 ARG A   1      24.931   9.294  58.768  0.00  0.00    -0.292 N 
ATOM      4 HH21 ARG A   1      25.326   8.424  59.178  0.00  0.00    +0.255 HD
ATOM      5 HH22 ARG A   1      23.978   9.610  59.039  0.00  0.00    +0.255 HD
ATOM      6  NH1 ARG A   1      26.859   9.565  57.523  0.00  0.00    -0.292 N 
ATOM      7 HH11 ARG A   1      27.241   8.693  57.942  0.00  0.00    +0.255 HD
ATOM      8 HH12 ARG A   1      27.416  10.092  56.820  0.00  0.00    +0.255 HD
ATOM      9  HE  ARG A   1      24.203  11.437  57.685  0.00  0.00    +0.259 HD
ENDROOT
BRANCH   1  10
ATOM     10  CD  ARG A   1      25.832  11.960  56.340  0.00  0.00    +0.174 C 
BRANCH  10  11
ATOM     11  CG  ARG A   1      25.264  13.370  56.156  0.00  0.00    +0.045 C 
BRANCH  11  12
ATOM     12  CB  ARG A   1      23.773  13.446  55.924  0.00  0.00    +0.029 C 
BRANCH  12  13
ATOM     13  CA  ARG A   1      23.241  14.895  55.997  0.00  0.00    +0.133 C 
BRANCH  13  14
ATOM     14  N   ARG A   1      21.782  14.903  55.965  0.00  0.00    -0.239 NA
ATOM     15  H   ARG A   1      21.286  14.003  55.806  0.00  0.00    +0.142 HD
ENDBRANCH  13  14
BRANCH  13  16
ATOM     16  C   ARG A   1      23.888  15.724  54.881  0.00  0.00    +0.224 C 
ATOM     17  O   ARG A   1      25.046  16.146  54.971  0.00  0.00    -0.287 OA
ENDBRANCH  13  16
ENDBRANCH  12  13
ENDBRANCH  11  12
ENDBRANCH  10  11
ENDBRANCH   1  10
TORSDOF 6
REMARK  Name = ../refined-set-2016/4pcs/4pcs_pocket.pdb
REMARK  140 active torsions:
REMARK  status: ('A' for Active; 'I' for Inactive)
REMARK    1  A    between atoms: _1  and  _3
REMARK    2  A    between atoms: _3  and  _4
REMARK    3  A    between atoms: _3  and  _6
REMARK    4  A    between atoms: _6  and  _7
REMARK    5  A    between atoms: _13  and  _15
REMARK    6  A    between atoms: _15  and  _16
REMARK    7  A    between atoms: _15  and  _18
REMARK    8  A    between atoms: _18  and  _19
REMARK    9  A    between atoms: _22  and  _24
REMARK   10  A    between atoms: _24  and  _25
REMARK   11  A    between atoms: _24  and  _27
REMARK   12  A    between atoms: _27  and  _28
REMARK   13  A    between atoms: _33  and  _35
REMARK   14  A    between atoms: _35  and  _36
REMARK   15  A    between atoms: _35  and  _38
REMARK   16  A    between atoms: _38  and  _39
REMARK   17  A    between atoms: _44  and  _45
REMARK   18  A    between atoms: _47  and  _49
REMARK   19  A    between atoms: _49  and  _50
REMARK   20  A    between atoms: _53  and  _55
REMARK   21  A    between atoms: _55  and  _56
REMARK   22  A    between atoms: _59  and  _61
REMARK   23  A    between atoms: _61  and  _62
REMARK   24  A    between atoms: _61  and  _64
REMARK   25  A    between atoms: _64  and  _65
REMARK   26  A    between atoms: _65  and  _66
REMARK   27  A    between atoms: _69  and  _71
REMARK   28  A    between atoms: _71  and  _72
REMARK   29  A    between atoms: _71  and  _74
REMARK   30  A    between atoms: _74  and  _75
REMARK   31  A    between atoms: _85  and  _87
REMARK   32  A    between atoms: _87  and  _88
REMARK   33  A    between atoms: _87  and  _90
REMARK   34  A    between atoms: _90  and  _91
REMARK   35  A    between atoms: _93  and  _95
REMARK   36  A    between atoms: _95  and  _96
REMARK   37  A    between atoms: _95  and  _98
REMARK   38  A    between atoms: _98  and  _99
REMARK   39  A    between atoms: _109  and  _111
REMARK   40  A    between atoms: _111  and  _112
REMARK   41  A    between atoms: _111  and  _114
REMARK   42  A    between atoms: _114  and  _115
REMARK   43  A    between atoms: _118  and  _120
REMARK   44  A    between atoms: _120  and  _121
REMARK   45  A    between atoms: _120  and  _123
REMARK   46  A    between atoms: _123  and  _124
REMARK   47  A    between atoms: _124  and  _125
REMARK   48  A    between atoms: _125  and  _126
REMARK   49  A    between atoms: _126  and  _127
REMARK   50  A    between atoms: _131  and  _133
REMARK   51  A    between atoms: _133  and  _134
REMARK   52  A    between atoms: _133  and  _136
REMARK   53  A    between atoms: _136  and  _137
REMARK   54  A    between atoms: _142  and  _144
REMARK   55  A    between atoms: _144  and  _145
REMARK   56  A    between atoms: _144  and  _147
REMARK   57  A    between atoms: _147  and  _148
REMARK   58  A    between atoms: _153  and  _155
REMARK   59  A    between atoms: _155  and  _156
REMARK   60  A    between atoms: _155  and  _158
REMARK   61  A    between atoms: _158  and  _159
REMARK   62  A    between atoms: _164  and  _165
REMARK   63  A    between atoms: _167  and  _169
REMARK   64  A    between atoms: _169  and  _170
REMARK   65  A    between atoms: _169  and  _172
REMARK   66  A    between atoms: _172  and  _173
REMARK   67  A    between atoms: _175  and  _177
REMARK   68  A    between atoms: _177  and  _178
REMARK   69  A    between atoms: _177  and  _180
REMARK   70  A    between atoms: _181  and  _182
REMARK   71  A    between atoms: _184  and  _186
REMARK   72  A    between atoms: _186  and  _187
REMARK   73  A    between atoms: _186  and  _189
REMARK   74  A    between atoms: _189  and  _190
REMARK   75  A    between atoms: _200  and  _202
REMARK   76  A    between atoms: _202  and  _203
REMARK   77  A    between atoms: _202  and  _205
REMARK   78  A    between atoms: _205  and  _206
REMARK   79  A    between atoms: _216  and  _218
REMARK   80  A    between atoms: _218  and  _219
REMARK   81  A    between atoms: _218  and  _221
REMARK   82  A    between atoms: _221  and  _222
REMARK   83  A    between atoms: _228  and  _230
REMARK   84  A    between atoms: _230  and  _231
REMARK   85  A    between atoms: _230  and  _233
REMARK   86  A    between atoms: _233  and  _234
REMARK   87  A    between atoms: _237  and  _239
REMARK   88  A    between atoms: _239  and  _240
REMARK   89  A    between atoms: _242  and  _244
REMARK   90  A    between atoms: _244  and  _245
REMARK   91  A    between atoms: _244  and  _247
REMARK   92  A    between atoms: _247  and  _248
REMARK   93  A    between atoms: _258  and  _260
REMARK   94  A    between atoms: _260  and  _261
REMARK   95  A    between atoms: _260  and  _263
REMARK   96  A    between atoms: _263  and  _264
REMARK   97  A    between atoms: _264  and  _265
REMARK   98  A    between atoms: _265  and  _266
REMARK   99  A    between atoms: _275  and  _277
REMARK  100  A    between atoms: _277  and  _278
REMARK  101  A    between atoms: _277  and  _280
REMARK  102  A    between atoms: _280  and  _281
REMARK  103  A    between atoms: _281  and  _282
REMARK  104  A    between atoms: _285  and  _287
REMARK  105  A    between atoms: _287  and  _288
REMARK  106  A    between atoms: _287  and  _290
REMARK  107  A    between atoms: _290  and  _291
REMARK  108  A    between atoms: _291  and  _292
REMARK  109  A    between atoms: _292  and  _293
REMARK  110  A    between atoms: _302  and  _304
REMARK  111  A    between atoms: _304  and  _305
REMARK  112  A    between atoms: _304  and  _307
REMARK  113  A    between atoms: _309  and  _311
REMARK  114  A    between atoms: _311  and  _312
REMARK  115  A    between atoms: _311  and  _314
REMARK  116  A    between atoms: _314  and  _315
REMARK  117  A    between atoms: _315  and  _316
REMARK  118  A    between atoms: _318  and  _320
REMARK  119  A    between atoms: _320  and  _321
REMARK  120  A    between atoms: _320  and  _323
REMARK  121  A    between atoms: _323  and  _324
REMARK  122  A    between atoms: _327  and  _329
REMARK  123  A    between atoms: _329  and  _330
REMARK  124  A    between atoms: _329  and  _332
REMARK  125  A    between atoms: _332  and  _333
REMARK  126  A    between atoms: _338  and  _340
REMARK  127  A    between atoms: _340  and  _341
REMARK  128  A    between atoms: _340  and  _343
REMARK  129  A    between atoms: _343  and  _344
REMARK  130  A    between atoms: _344  and  _345
REMARK  131  A    between atoms: _350  and  _352
REMARK  132  A    between atoms: _352  and  _353
REMARK  133  A    between atoms: _352  and  _355
REMARK  134  A    between atoms: _355  and  _356
REMARK  135  A    between atoms: _366  and  _368
REMARK  136  A    between atoms: _368  and  _369
REMARK  137  A    between atoms: _371  and  _373
REMARK  138  A    between atoms: _373  and  _374
REMARK  139  A    between atoms: _373  and  _376
REMARK  140  A    between atoms: _376  and  _377
REMARK                            x       y       z     vdW  Elec       q    Type
REMARK                         _______ _______ _______ _____ _____    ______ ____
ROOT
ATOM      1  CA  ARG A   2      25.607   2.256  63.935  0.00  0.00    +0.137 C 
ENDROOT
BRANCH   1   4
ATOM      2  C   GLU A   1      25.435   4.510  62.985  0.00  0.00    +0.238 C 
ATOM      3  O   GLU A   1      26.258   4.961  63.771  0.00  0.00    -0.274 OA
ATOM      4  N   ARG A   2      25.120   3.214  62.954  0.00  0.00    -0.298 N 
ATOM      5  H   ARG A   2      24.498   2.873  62.194  0.00  0.00    +0.150 HD
BRANCH   2   6
ATOM      6  CA  GLU A   1      24.676   5.434  62.028  0.00  0.00    +0.145 C 
BRANCH   6   7
ATOM      7  N   GLU A   1      23.868   6.348  62.767  0.00  0.00    -0.238 NA
ATOM      8  H   GLU A   1      24.344   6.989  63.433  0.00  0.00    +0.142 HD
ENDBRANCH   6   7
BRANCH   6   9
ATOM      9  CB  GLU A   1      25.639   6.269  61.158  0.00  0.00    +0.038 C 
BRANCH   9  10
ATOM     10  CG  GLU A   1      26.725   5.510  60.420  0.00  0.00    +0.116 C 
BRANCH  10  11
ATOM     11  CD  GLU A   1      27.468   6.376  59.413  0.00  0.00    +0.365 C 
ATOM     12  OE2 GLU A   1      28.656   6.121  59.172  0.00  0.00    -0.246 OA
ATOM     13  OE1 GLU A   1      26.874   7.339  58.903  0.00  0.00    -0.246 OA
ENDBRANCH  10  11
ENDBRANCH   9  10
ENDBRANCH   6   9
ENDBRANCH   2   6
ENDBRANCH   1   4
BRANCH   1  14
ATOM     14  C   ARG A   2      25.209   2.613  65.392  0.00  0.00    +0.227 C 
ATOM     15  O   ARG A   2      25.846   2.171  66.323  0.00  0.00    -0.286 OA
ENDBRANCH   1  14
BRANCH   1  16
ATOM     16  CB  ARG A   2      27.121   2.012  63.787  0.00  0.00    +0.031 C 
BRANCH  16  17
ATOM     17  CG  ARG A   2      27.514   1.631  62.369  0.00  0.00    +0.045 C 
BRANCH  17  18
ATOM     18  CD  ARG A   2      29.004   1.315  62.236  0.00  0.00    +0.174 C 
BRANCH  18  19
ATOM     19  NE  ARG A   2      29.767   2.446  62.750  0.00  0.00    -0.265 N 
ATOM     20  CZ  ARG A   2      30.547   2.428  63.840  0.00  0.00    +0.342 C 
ATOM     21  NH2 ARG A   2      30.732   1.321  64.536  0.00  0.00    -0.292 N 
ATOM     22 HH21 ARG A   2      31.342   1.332  65.378  0.00  0.00    +0.255 HD
ATOM     23 HH22 ARG A   2      30.268   0.438  64.242  0.00  0.00    +0.255 HD
ATOM     24  NH1 ARG A   2      31.176   3.530  64.208  0.00  0.00    -0.292 N 
ATOM     25 HH11 ARG A   2      31.783   3.525  65.052  0.00  0.00    +0.255 HD
ATOM     26 HH12 ARG A   2      31.064   4.403  63.653  0.00  0.00    +0.255 HD
ATOM     27  HE  ARG A   2      29.701   3.342  62.227  0.00  0.00    +0.259 HD
ENDBRANCH  18  19
ENDBRANCH  17  18
ENDBRANCH  16  17
ENDBRANCH   1  16
TORSDOF 11
REMARK  Name = ../refined-set-2016/4pcs/4pcs_pocket.pdb
REMARK  140 active torsions:
REMARK  status: ('A' for Active; 'I' for Inactive)
REMARK    1  A    between atoms: _1  and  _3
REMARK    2  A    between atoms: _3  and  _4
REMARK    3  A    between atoms: _3  and  _6
REMARK    4  A    between atoms: _6  and  _7
REMARK    5  A    between atoms: _13  and  _15
REMARK    6  A    between atoms: _15  and  _16
REMARK    7  A    between atoms: _15  and  _18
REMARK    8  A    between atoms: _18  and  _19
REMARK    9  A    between atoms: _22  and  _24
REMARK   10  A    between atoms: _24  and  _25
REMARK   11  A    between atoms: _24  and  _27
REMARK   12  A    between atoms: _27  and  _28
REMARK   13  A    between atoms: _33  and  _35
REMARK   14  A    between atoms: _35  and  _36
REMARK   15  A    between atoms: _35  and  _38
REMARK   16  A    between atoms: _38  and  _39
REMARK   17  A    between atoms: _44  and  _45
REMARK   18  A    between atoms: _47  and  _49
REMARK   19  A    between atoms: _49  and  _50
REMARK   20  A    between atoms: _53  and  _55
REMARK   21  A    between atoms: _55  and  _56
REMARK   22  A    between atoms: _59  and  _61
REMARK   23  A    between atoms: _61  and  _62
REMARK   24  A    between atoms: _61  and  _64
REMARK   25  A    between atoms: _64  and  _65
REMARK   26  A    between atoms: _65  and  _66
REMARK   27  A    between atoms: _69  and  _71
REMARK   28  A    between atoms: _71  and  _72
REMARK   29  A    between atoms: _71  and  _74
REMARK   30  A    between atoms: _74  and  _75
REMARK   31  A    between atoms: _85  and  _87
REMARK   32  A    between atoms: _87  and  _88
REMARK   33  A    between atoms: _87  and  _90
REMARK   34  A    between atoms: _90  and  _91
REMARK   35  A    between atoms: _93  and  _95
REMARK   36  A    between atoms: _95  and  _96
REMARK   37  A    between atoms: _95  and  _98
REMARK   38  A    between atoms: _98  and  _99
REMARK   39  A    between atoms: _109  and  _111
REMARK   40  A    between atoms: _111  and  _112
REMARK   41  A    between atoms: _111  and  _114
REMARK   42  A    between atoms: _114  and  _115
REMARK   43  A    between atoms: _118  and  _120
REMARK   44  A    between atoms: _120  and  _121
REMARK   45  A    between atoms: _120  and  _123
REMARK   46  A    between atoms: _123  and  _124
REMARK   47  A    between atoms: _124  and  _125
REMARK   48  A    between atoms: _125  and  _126
REMARK   49  A    between atoms: _126  and  _127
REMARK   50  A    between atoms: _131  and  _133
REMARK   51  A    between atoms: _133  and  _134
REMARK   52  A    between atoms: _133  and  _136
REMARK   53  A    between atoms: _136  and  _137
REMARK   54  A    between atoms: _142  and  _144
REMARK   55  A    between atoms: _144  and  _145
REMARK   56  A    between atoms: _144  and  _147
REMARK   57  A    between atoms: _147  and  _148
REMARK   58  A    between atoms: _153  and  _155
REMARK   59  A    between atoms: _155  and  _156
REMARK   60  A    between atoms: _155  and  _158
REMARK   61  A    between atoms: _158  and  _159
REMARK   62  A    between atoms: _164  and  _165
REMARK   63  A    between atoms: _167  and  _169
REMARK   64  A    between atoms: _169  and  _170
REMARK   65  A    between atoms: _169  and  _172
REMARK   66  A    between atoms: _172  and  _173
REMARK   67  A    between atoms: _175  and  _177
REMARK   68  A    between atoms: _177  and  _178
REMARK   69  A    between atoms: _177  and  _180
REMARK   70  A    between atoms: _181  and  _182
REMARK   71  A    between atoms: _184  and  _186
REMARK   72  A    between atoms: _186  and  _187
REMARK   73  A    between atoms: _186  and  _189
REMARK   74  A    between atoms: _189  and  _190
REMARK   75  A    between atoms: _200  and  _202
REMARK   76  A    between atoms: _202  and  _203
REMARK   77  A    between atoms: _202  and  _205
REMARK   78  A    between atoms: _205  and  _206
REMARK   79  A    between atoms: _216  and  _218
REMARK   80  A    between atoms: _218  and  _219
REMARK   81  A    between atoms: _218  and  _221
REMARK   82  A    between atoms: _221  and  _222
REMARK   83  A    between atoms: _228  and  _230
REMARK   84  A    between atoms: _230  and  _231
REMARK   85  A    between atoms: _230  and  _233
REMARK   86  A    between atoms: _233  and  _234
REMARK   87  A    between atoms: _237  and  _239
REMARK   88  A    between atoms: _239  and  _240
REMARK   89  A    between atoms: _242  and  _244
REMARK   90  A    between atoms: _244  and  _245
REMARK   91  A    between atoms: _244  and  _247
REMARK   92  A    between atoms: _247  and  _248
REMARK   93  A    between atoms: _258  and  _260
REMARK   94  A    between atoms: _260  and  _261
REMARK   95  A    between atoms: _260  and  _263
REMARK   96  A    between atoms: _263  and  _264
REMARK   97  A    between atoms: _264  and  _265
REMARK   98  A    between atoms: _265  and  _266
REMARK   99  A    between atoms: _275  and  _277
REMARK  100  A    between atoms: _277  and  _278
REMARK  101  A    between atoms: _277  and  _280
REMARK  102  A    between atoms: _280  and  _281
REMARK  103  A    between atoms: _281  and  _282
REMARK  104  A    between atoms: _285  and  _287
REMARK  105  A    between atoms: _287  and  _288
REMARK  106  A    between atoms: _287  and  _290
REMARK  107  A    between atoms: _290  and  _291
REMARK  108  A    between atoms: _291  and  _292
REMARK  109  A    between atoms: _292  and  _293
REMARK  110  A    between atoms: _302  and  _304
REMARK  111  A    between atoms: _304  and  _305
REMARK  112  A    between atoms: _304  and  _307
REMARK  113  A    between atoms: _309  and  _311
REMARK  114  A    between atoms: _311  and  _312
REMARK  115  A    between atoms: _311  and  _314
REMARK  116  A    between atoms: _314  and  _315
REMARK  117  A    between atoms: _315  and  _316
REMARK  118  A    between atoms: _318  and  _320
REMARK  119  A    between atoms: _320  and  _321
REMARK  120  A    between atoms: _320  and  _323
REMARK  121  A    between atoms: _323  and  _324
REMARK  122  A    between atoms: _327  and  _329
REMARK  123  A    between atoms: _329  and  _330
REMARK  124  A    between atoms: _329  and  _332
REMARK  125  A    between atoms: _332  and  _333
REMARK  126  A    between atoms: _338  and  _340
REMARK  127  A    between atoms: _340  and  _341
REMARK  128  A    between atoms: _340  and  _343
REMARK  129  A    between atoms: _343  and  _344
REMARK  130  A    between atoms: _344  and  _345
REMARK  131  A    between atoms: _350  and  _352
REMARK  132  A    between atoms: _352  and  _353
REMARK  133  A    between atoms: _352  and  _355
REMARK  134  A    between atoms: _355  and  _356
REMARK  135  A    between atoms: _366  and  _368
REMARK  136  A    between atoms: _368  and  _369
REMARK  137  A    between atoms: _371  and  _373
REMARK  138  A    between atoms: _373  and  _374
REMARK  139  A    between atoms: _373  and  _376
REMARK  140  A    between atoms: _376  and  _377
REMARK                            x       y       z     vdW  Elec       q    Type
REMARK                         _______ _______ _______ _____ _____    ______ ____
ROOT
ATOM      1  CA  MET A   2      23.731  -0.275  60.548  0.00  0.00    +0.149 C 
ENDROOT
BRANCH   1   4
ATOM      2  C   CYS A   1      22.613   1.799  60.047  0.00  0.00    +0.239 C 
ATOM      3  O   CYS A   1      23.058   2.326  61.045  0.00  0.00    -0.274 OA
ATOM      4  N   MET A   2      22.923   0.569  59.686  0.00  0.00    -0.297 N 
ATOM      5  H   MET A   2      22.585   0.200  58.774  0.00  0.00    +0.150 HD
BRANCH   2   6
ATOM      6  CA  CYS A   1      21.679   2.552  59.140  0.00  0.00    +0.156 C 
BRANCH   6   7
ATOM      7  N   CYS A   1      20.998   3.605  59.852  0.00  0.00    -0.237 NA
ATOM      8  H   CYS A   1      21.536   4.245  60.471  0.00  0.00    +0.142 HD
ENDBRANCH   6   7
BRANCH   6   9
ATOM      9  CB  CYS A   1      22.460   3.095  57.955  0.00  0.00    +0.095 C 
ATOM     10  SG  CYS A   1      23.570   4.464  58.270  0.00  0.00    -0.080 S 
ENDBRANCH   6   9
ENDBRANCH   2   6
ENDBRANCH   1   4
BRANCH   1  11
ATOM     11  C   MET A   2      24.560  -1.269  59.763  0.00  0.00    +0.241 C 
ATOM     12  N   THR A   3      25.638  -1.721  60.379  0.00  0.00    -0.296 N 
ATOM     13  H   THR A   3      25.892  -1.290  61.291  0.00  0.00    +0.150 HD
ATOM     14  O   MET A   2      24.230  -1.604  58.608  0.00  0.00    -0.273 OA
BRANCH  12  15
ATOM     15  CA  THR A   3      26.497  -2.784  59.867  0.00  0.00    +0.164 C 
BRANCH  15  16
ATOM     16  C   THR A   3      26.291  -4.072  60.607  0.00  0.00    +0.229 C 
ATOM     17  O   THR A   3      25.746  -4.083  61.723  0.00  0.00    -0.286 OA
ENDBRANCH  15  16
BRANCH  15  18
ATOM     18  CB  THR A   3      27.977  -2.393  59.991  0.00  0.00    +0.136 C 
ATOM     19  CG2 THR A   3      28.268  -1.225  59.067  0.00  0.00    +0.034 C 
BRANCH  18  20
ATOM     20  OG1 THR A   3      28.314  -2.001  61.347  0.00  0.00    -0.382 OA
ATOM     21  HG1 THR A   3      28.137  -2.757  61.961  0.00  0.00    +0.210 HD
ENDBRANCH  18  20
ENDBRANCH  15  18
ENDBRANCH  12  15
ENDBRANCH   1  11
BRANCH   1  22
ATOM     22  CB  MET A   2      22.862  -1.031  61.515  0.00  0.00    +0.041 C 
BRANCH  22  23
ATOM     23  CG  MET A   2      21.928  -2.017  60.898  0.00  0.00    +0.060 C 
BRANCH  23  24
ATOM     24  SD  MET A   2      21.050  -3.048  62.094  0.00  0.00    -0.139 S 
ATOM     25  CE  MET A   2      22.341  -4.165  62.522  0.00  0.00    +0.069 C 
ENDBRANCH  23  24
ENDBRANCH  22  23
ENDBRANCH   1  22
TORSDOF 12
REMARK  Name = ../refined-set-2016/4pcs/4pcs_pocket.pdb
REMARK  140 active torsions:
REMARK  status: ('A' for Active; 'I' for Inactive)
REMARK    1  A    between atoms: _1  and  _3
REMARK    2  A    between atoms: _3  and  _4
REMARK    3  A    between atoms: _3  and  _6
REMARK    4  A    between atoms: _6  and  _7
REMARK    5  A    between atoms: _13  and  _15
REMARK    6  A    between atoms: _15  and  _16
REMARK    7  A    between atoms: _15  and  _18
REMARK    8  A    between atoms: _18  and  _19
REMARK    9  A    between atoms: _22  and  _24
REMARK   10  A    between atoms: _24  and  _25
REMARK   11  A    between atoms: _24  and  _27
REMARK   12  A    between atoms: _27  and  _28
REMARK   13  A    between atoms: _33  and  _35
REMARK   14  A    between atoms: _35  and  _36
REMARK   15  A    between atoms: _35  and  _38
REMARK   16  A    between atoms: _38  and  _39
REMARK   17  A    between atoms: _44  and  _45
REMARK   18  A    between atoms: _47  and  _49
REMARK   19  A    between atoms: _49  and  _50
REMARK   20  A    between atoms: _53  and  _55
REMARK   21  A    between atoms: _55  and  _56
REMARK   22  A    between atoms: _59  and  _61
REMARK   23  A    between atoms: _61  and  _62
REMARK   24  A    between atoms: _61  and  _64
REMARK   25  A    between atoms: _64  and  _65
REMARK   26  A    between atoms: _65  and  _66
REMARK   27  A    between atoms: _69  and  _71
REMARK   28  A    between atoms: _71  and  _72
REMARK   29  A    between atoms: _71  and  _74
REMARK   30  A    between atoms: _74  and  _75
REMARK   31  A    between atoms: _85  and  _87
REMARK   32  A    between atoms: _87  and  _88
REMARK   33  A    between atoms: _87  and  _90
REMARK   34  A    between atoms: _90  and  _91
REMARK   35  A    between atoms: _93  and  _95
REMARK   36  A    between atoms: _95  and  _96
REMARK   37  A    between atoms: _95  and  _98
REMARK   38  A    between atoms: _98  and  _99
REMARK   39  A    between atoms: _109  and  _111
REMARK   40  A    between atoms: _111  and  _112
REMARK   41  A    between atoms: _111  and  _114
REMARK   42  A    between atoms: _114  and  _115
REMARK   43  A    between atoms: _118  and  _120
REMARK   44  A    between atoms: _120  and  _121
REMARK   45  A    between atoms: _120  and  _123
REMARK   46  A    between atoms: _123  and  _124
REMARK   47  A    between atoms: _124  and  _125
REMARK   48  A    between atoms: _125  and  _126
REMARK   49  A    between atoms: _126  and  _127
REMARK   50  A    between atoms: _131  and  _133
REMARK   51  A    between atoms: _133  and  _134
REMARK   52  A    between atoms: _133  and  _136
REMARK   53  A    between atoms: _136  and  _137
REMARK   54  A    between atoms: _142  and  _144
REMARK   55  A    between atoms: _144  and  _145
REMARK   56  A    between atoms: _144  and  _147
REMARK   57  A    between atoms: _147  and  _148
REMARK   58  A    between atoms: _153  and  _155
REMARK   59  A    between atoms: _155  and  _156
REMARK   60  A    between atoms: _155  and  _158
REMARK   61  A    between atoms: _158  and  _159
REMARK   62  A    between atoms: _164  and  _165
REMARK   63  A    between atoms: _167  and  _169
REMARK   64  A    between atoms: _169  and  _170
REMARK   65  A    between atoms: _169  and  _172
REMARK   66  A    between atoms: _172  and  _173
REMARK   67  A    between atoms: _175  and  _177
REMARK   68  A    between atoms: _177  and  _178
REMARK   69  A    between atoms: _177  and  _180
REMARK   70  A    between atoms: _181  and  _182
REMARK   71  A    between atoms: _184  and  _186
REMARK   72  A    between atoms: _186  and  _187
REMARK   73  A    between atoms: _186  and  _189
REMARK   74  A    between atoms: _189  and  _190
REMARK   75  A    between atoms: _200  and  _202
REMARK   76  A    between atoms: _202  and  _203
REMARK   77  A    between atoms: _202  and  _205
REMARK   78  A    between atoms: _205  and  _206
REMARK   79  A    between atoms: _216  and  _218
REMARK   80  A    between atoms: _218  and  _219
REMARK   81  A    between atoms: _218  and  _221
REMARK   82  A    between atoms: _221  and  _222
REMARK   83  A    between atoms: _228  and  _230
REMARK   84  A    between atoms: _230  and  _231
REMARK   85  A    between atoms: _230  and  _233
REMARK   86  A    between atoms: _233  and  _234
REMARK   87  A    between atoms: _237  and  _239
REMARK   88  A    between atoms: _239  and  _240
REMARK   89  A    between atoms: _242  and  _244
REMARK   90  A    between atoms: _244  and  _245
REMARK   91  A    between atoms: _244  and  _247
REMARK   92  A    between atoms: _247  and  _248
REMARK   93  A    between atoms: _258  and  _260
REMARK   94  A    between atoms: _260  and  _261
REMARK   95  A    between atoms: _260  and  _263
REMARK   96  A    between atoms: _263  and  _264
REMARK   97  A    between atoms: _264  and  _265
REMARK   98  A    between atoms: _265  and  _266
REMARK   99  A    between atoms: _275  and  _277
REMARK  100  A    between atoms: _277  and  _278
REMARK  101  A    between atoms: _277  and  _280
REMARK  102  A    between atoms: _280  and  _281
REMARK  103  A    between atoms: _281  and  _282
REMARK  104  A    between atoms: _285  and  _287
REMARK  105  A    between atoms: _287  and  _288
REMARK  106  A    between atoms: _287  and  _290
REMARK  107  A    between atoms: _290  and  _291
REMARK  108  A    between atoms: _291  and  _292
REMARK  109  A    between atoms: _292  and  _293
REMARK  110  A    between atoms: _302  and  _304
REMARK  111  A    between atoms: _304  and  _305
REMARK  112  A    between atoms: _304  and  _307
REMARK  113  A    between atoms: _309  and  _311
REMARK  114  A    between atoms: _311  and  _312
REMARK  115  A    between atoms: _311  and  _314
REMARK  116  A    between atoms: _314  and  _315
REMARK  117  A    between atoms: _315  and  _316
REMARK  118  A    between atoms: _318  and  _320
REMARK  119  A    between atoms: _320  and  _321
REMARK  120  A    between atoms: _320  and  _323
REMARK  121  A    between atoms: _323  and  _324
REMARK  122  A    between atoms: _327  and  _329
REMARK  123  A    between atoms: _329  and  _330
REMARK  124  A    between atoms: _329  and  _332
REMARK  125  A    between atoms: _332  and  _333
REMARK  126  A    between atoms: _338  and  _340
REMARK  127  A    between atoms: _340  and  _341
REMARK  128  A    between atoms: _340  and  _343
REMARK  129  A    between atoms: _343  and  _344
REMARK  130  A    between atoms: _344  and  _345
REMARK  131  A    between atoms: _350  and  _352
REMARK  132  A    between atoms: _352  and  _353
REMARK  133  A    between atoms: _352  and  _355
REMARK  134  A    between atoms: _355  and  _356
REMARK  135  A    between atoms: _366  and  _368
REMARK  136  A    between atoms: _368  and  _369
REMARK  137  A    between atoms: _371  and  _373
REMARK  138  A    between atoms: _373  and  _374
REMARK  139  A    between atoms: _373  and  _376
REMARK  140  A    between atoms: _376  and  _377
REMARK                            x       y       z     vdW  Elec       q    Type
REMARK                         _______ _______ _______ _____ _____    ______ ____
ROOT
ATOM      1  C   GLN A   2      31.474  -2.520  57.207  0.00  0.00    +0.241 C 
ATOM      2  O   GLN A   2      30.414  -3.096  57.421  0.00  0.00    -0.273 OA
ATOM      3  N   TRP A   3      31.615  -1.606  56.245  0.00  0.00    -0.297 N 
ATOM      4  H   TRP A   3      32.494  -1.053  56.192  0.00  0.00    +0.150 HD
ENDROOT
BRANCH   1   5
ATOM      5  CA  GLN A   2      32.660  -2.734  58.127  0.00  0.00    +0.149 C 
BRANCH   5   8
ATOM      6  C   ASN A   1      33.038  -1.705  60.364  0.00  0.00    +0.239 C 
ATOM      7  O   ASN A   1      34.228  -1.462  60.155  0.00  0.00    -0.274 OA
ATOM      8  N   GLN A   2      32.263  -2.354  59.502  0.00  0.00    -0.297 N 
ATOM      9  H   GLN A   2      31.306  -2.615  59.816  0.00  0.00    +0.150 HD
BRANCH   6  10
ATOM     10  CA  ASN A   1      32.370  -1.277  61.688  0.00  0.00    +0.154 C 
BRANCH  10  11
ATOM     11  N   ASN A   1      32.122  -2.401  62.573  0.00  0.00    -0.238 NA
ATOM     12  H   ASN A   1      32.723  -3.245  62.487  0.00  0.00    +0.142 HD
ENDBRANCH  10  11
BRANCH  10  13
ATOM     13  CB  ASN A   1      33.256  -0.268  62.400  0.00  0.00    +0.111 C 
BRANCH  13  14
ATOM     14  CG  ASN A   1      33.247   1.106  61.755  0.00  0.00    +0.221 C 
ATOM     15  ND2 ASN A   1      33.958   2.006  62.380  0.00  0.00    -0.329 N 
ATOM     16 HD21 ASN A   1      34.483   1.749  63.240  0.00  0.00    +0.145 HD
ATOM     17 HD22 ASN A   1      33.999   2.980  62.018  0.00  0.00    +0.145 HD
ATOM     18  OD1 ASN A   1      32.603   1.375  60.721  0.00  0.00    -0.275 OA
ENDBRANCH  13  14
ENDBRANCH  10  13
ENDBRANCH   6  10
ENDBRANCH   5   8
BRANCH   5  19
ATOM     19  CB  GLN A   2      33.091  -4.175  58.063  0.00  0.00    +0.039 C 
BRANCH  19  20
ATOM     20  CG  GLN A   2      34.324  -4.504  58.894  0.00  0.00    +0.087 C 
BRANCH  20  21
ATOM     21  CD  GLN A   2      35.569  -3.785  58.374  0.00  0.00    +0.219 C 
ATOM     22  NE2 GLN A   2      36.546  -3.560  59.246  0.00  0.00    -0.329 N 
ATOM     23 HE21 GLN A   2      36.446  -3.876  60.232  0.00  0.00    +0.145 HD
ATOM     24 HE22 GLN A   2      37.410  -3.068  58.943  0.00  0.00    +0.145 HD
ATOM     25  OE1 GLN A   2      35.640  -3.432  57.203  0.00  0.00    -0.275 OA
ENDBRANCH  20  21
ENDBRANCH  19  20
ENDBRANCH   5  19
ENDBRANCH   1   5
BRANCH   3  26
ATOM     26  CA  TRP A   3      30.569  -1.369  55.275  0.00  0.00    +0.153 C 
BRANCH  26  27
ATOM     27  C   TRP A   3      30.935  -2.045  53.923  0.00  0.00    +0.241 C 
ATOM     28  O   TRP A   3      30.186  -2.889  53.431  0.00  0.00    -0.273 OA
ATOM     29  N   GLY A   4      32.095  -1.677  53.360  0.00  0.00    -0.296 N 
ATOM     30  H   GLY A   4      32.595  -0.840  53.721  0.00  0.00    +0.150 HD
BRANCH  29  31
ATOM     31  CA  GLY A   4      32.663  -2.424  52.260  0.00  0.00    +0.163 C 
BRANCH  31  32
ATOM     32  C   GLY A   4      33.044  -3.812  52.685  0.00  0.00    +0.229 C 
ATOM     33  O   GLY A   4      33.232  -4.060  53.865  0.00  0.00    -0.286 OA
ENDBRANCH  31  32
ENDBRANCH  29  31
ENDBRANCH  26  27
BRANCH  26  34
ATOM     34  CB  TRP A   3      30.350   0.108  55.094  0.00  0.00    +0.057 C 
BRANCH  34  35
ATOM     35  CG  TRP A   3      29.986   0.842  56.329  0.00  0.00    -0.002 A 
ATOM     36  CD1 TRP A   3      30.837   1.427  57.202  0.00  0.00    +0.068 A 
ATOM     37  NE1 TRP A   3      30.136   2.078  58.175  0.00  0.00    -0.352 N 
ATOM     38  HE1 TRP A   3      30.553   2.602  58.971  0.00  0.00    +0.166 HD
ATOM     39  CE2 TRP A   3      28.796   1.931  57.936  0.00  0.00    +0.056 A 
ATOM     40  CZ2 TRP A   3      27.705   2.423  58.637  0.00  0.00    +0.017 A 
ATOM     41  CH2 TRP A   3      26.451   2.124  58.172  0.00  0.00    +0.001 A 
ATOM     42  CZ3 TRP A   3      26.278   1.365  57.030  0.00  0.00    +0.000 A 
ATOM     43  CE3 TRP A   3      27.401   0.885  56.309  0.00  0.00    +0.001 A 
ATOM     44  CD2 TRP A   3      28.666   1.170  56.772  0.00  0.00    +0.013 A 
ENDBRANCH  34  35
ENDBRANCH  26  34
ENDBRANCH   3  26
TORSDOF 15
REMARK  Name = ../refined-set-2016/4pcs/4pcs_pocket.pdb
REMARK  140 active torsions:
REMARK  status: ('A' for Active; 'I' for Inactive)
REMARK    1  A    between atoms: _1  and  _3
REMARK    2  A    between atoms: _3  and  _4
REMARK    3  A    between atoms: _3  and  _6
REMARK    4  A    between atoms: _6  and  _7
REMARK    5  A    between atoms: _13  and  _15
REMARK    6  A    between atoms: _15  and  _16
REMARK    7  A    between atoms: _15  and  _18
REMARK    8  A    between atoms: _18  and  _19
REMARK    9  A    between atoms: _22  and  _24
REMARK   10  A    between atoms: _24  and  _25
REMARK   11  A    between atoms: _24  and  _27
REMARK   12  A    between atoms: _27  and  _28
REMARK   13  A    between atoms: _33  and  _35
REMARK   14  A    between atoms: _35  and  _36
REMARK   15  A    between atoms: _35  and  _38
REMARK   16  A    between atoms: _38  and  _39
REMARK   17  A    between atoms: _44  and  _45
REMARK   18  A    between atoms: _47  and  _49
REMARK   19  A    between atoms: _49  and  _50
REMARK   20  A    between atoms: _53  and  _55
REMARK   21  A    between atoms: _55  and  _56
REMARK   22  A    between atoms: _59  and  _61
REMARK   23  A    between atoms: _61  and  _62
REMARK   24  A    between atoms: _61  and  _64
REMARK   25  A    between atoms: _64  and  _65
REMARK   26  A    between atoms: _65  and  _66
REMARK   27  A    between atoms: _69  and  _71
REMARK   28  A    between atoms: _71  and  _72
REMARK   29  A    between atoms: _71  and  _74
REMARK   30  A    between atoms: _74  and  _75
REMARK   31  A    between atoms: _85  and  _87
REMARK   32  A    between atoms: _87  and  _88
REMARK   33  A    between atoms: _87  and  _90
REMARK   34  A    between atoms: _90  and  _91
REMARK   35  A    between atoms: _93  and  _95
REMARK   36  A    between atoms: _95  and  _96
REMARK   37  A    between atoms: _95  and  _98
REMARK   38  A    between atoms: _98  and  _99
REMARK   39  A    between atoms: _109  and  _111
REMARK   40  A    between atoms: _111  and  _112
REMARK   41  A    between atoms: _111  and  _114
REMARK   42  A    between atoms: _114  and  _115
REMARK   43  A    between atoms: _118  and  _120
REMARK   44  A    between atoms: _120  and  _121
REMARK   45  A    between atoms: _120  and  _123
REMARK   46  A    between atoms: _123  and  _124
REMARK   47  A    between atoms: _124  and  _125
REMARK   48  A    between atoms: _125  and  _126
REMARK   49  A    between atoms: _126  and  _127
REMARK   50  A    between atoms: _131  and  _133
REMARK   51  A    between atoms: _133  and  _134
REMARK   52  A    between atoms: _133  and  _136
REMARK   53  A    between atoms: _136  and  _137
REMARK   54  A    between atoms: _142  and  _144
REMARK   55  A    between atoms: _144  and  _145
REMARK   56  A    between atoms: _144  and  _147
REMARK   57  A    between atoms: _147  and  _148
REMARK   58  A    between atoms: _153  and  _155
REMARK   59  A    between atoms: _155  and  _156
REMARK   60  A    between atoms: _155  and  _158
REMARK   61  A    between atoms: _158  and  _159
REMARK   62  A    between atoms: _164  and  _165
REMARK   63  A    between atoms: _167  and  _169
REMARK   64  A    between atoms: _169  and  _170
REMARK   65  A    between atoms: _169  and  _172
REMARK   66  A    between atoms: _172  and  _173
REMARK   67  A    between atoms: _175  and  _177
REMARK   68  A    between atoms: _177  and  _178
REMARK   69  A    between atoms: _177  and  _180
REMARK   70  A    between atoms: _181  and  _182
REMARK   71  A    between atoms: _184  and  _186
REMARK   72  A    between atoms: _186  and  _187
REMARK   73  A    between atoms: _186  and  _189
REMARK   74  A    between atoms: _189  and  _190
REMARK   75  A    between atoms: _200  and  _202
REMARK   76  A    between atoms: _202  and  _203
REMARK   77  A    between atoms: _202  and  _205
REMARK   78  A    between atoms: _205  and  _206
REMARK   79  A    between atoms: _216  and  _218
REMARK   80  A    between atoms: _218  and  _219
REMARK   81  A    between atoms: _218  and  _221
REMARK   82  A    between atoms: _221  and  _222
REMARK   83  A    between atoms: _228  and  _230
REMARK   84  A    between atoms: _230  and  _231
REMARK   85  A    between atoms: _230  and  _233
REMARK   86  A    between atoms: _233  and  _234
REMARK   87  A    between atoms: _237  and  _239
REMARK   88  A    between atoms: _239  and  _240
REMARK   89  A    between atoms: _242  and  _244
REMARK   90  A    between atoms: _244  and  _245
REMARK   91  A    between atoms: _244  and  _247
REMARK   92  A    between atoms: _247  and  _248
REMARK   93  A    between atoms: _258  and  _260
REMARK   94  A    between atoms: _260  and  _261
REMARK   95  A    between atoms: _260  and  _263
REMARK   96  A    between atoms: _263  and  _264
REMARK   97  A    between atoms: _264  and  _265
REMARK   98  A    between atoms: _265  and  _266
REMARK   99  A    between atoms: _275  and  _277
REMARK  100  A    between atoms: _277  and  _278
REMARK  101  A    between atoms: _277  and  _280
REMARK  102  A    between atoms: _280  and  _281
REMARK  103  A    between atoms: _281  and  _282
REMARK  104  A    between atoms: _285  and  _287
REMARK  105  A    between atoms: _287  and  _288
REMARK  106  A    between atoms: _287  and  _290
REMARK  107  A    between atoms: _290  and  _291
REMARK  108  A    between atoms: _291  and  _292
REMARK  109  A    between atoms: _292  and  _293
REMARK  110  A    between atoms: _302  and  _304
REMARK  111  A    between atoms: _304  and  _305
REMARK  112  A    between atoms: _304  and  _307
REMARK  113  A    between atoms: _309  and  _311
REMARK  114  A    between atoms: _311  and  _312
REMARK  115  A    between atoms: _311  and  _314
REMARK  116  A    between atoms: _314  and  _315
REMARK  117  A    between atoms: _315  and  _316
REMARK  118  A    between atoms: _318  and  _320
REMARK  119  A    between atoms: _320  and  _321
REMARK  120  A    between atoms: _320  and  _323
REMARK  121  A    between atoms: _323  and  _324
REMARK  122  A    between atoms: _327  and  _329
REMARK  123  A    between atoms: _329  and  _330
REMARK  124  A    between atoms: _329  and  _332
REMARK  125  A    between atoms: _332  and  _333
REMARK  126  A    between atoms: _338  and  _340
REMARK  127  A    between atoms: _340  and  _341
REMARK  128  A    between atoms: _340  and  _343
REMARK  129  A    between atoms: _343  and  _344
REMARK  130  A    between atoms: _344  and  _345
REMARK  131  A    between atoms: _350  and  _352
REMARK  132  A    between atoms: _352  and  _353
REMARK  133  A    between atoms: _352  and  _355
REMARK  134  A    between atoms: _355  and  _356
REMARK  135  A    between atoms: _366  and  _368
REMARK  136  A    between atoms: _368  and  _369
REMARK  137  A    between atoms: _371  and  _373
REMARK  138  A    between atoms: _373  and  _374
REMARK  139  A    between atoms: _373  and  _376
REMARK  140  A    between atoms: _376  and  _377
REMARK                            x       y       z     vdW  Elec       q    Type
REMARK                         _______ _______ _______ _____ _____    ______ ____
ROOT
ATOM      1  CB  ASN A   1      25.459  -2.190  55.691  0.00  0.00    +0.110 C 
ENDROOT
BRANCH   1   2
ATOM      2  CG  ASN A   1      26.543  -2.100  54.617  0.00  0.00    +0.221 C 
ATOM      3  ND2 ASN A   1      27.624  -2.834  54.789  0.00  0.00    -0.329 N 
ATOM      4 HD21 ASN A   1      27.736  -3.400  55.654  0.00  0.00    +0.145 HD
ATOM      5 HD22 ASN A   1      28.365  -2.847  54.059  0.00  0.00    +0.145 HD
ATOM      6  OD1 ASN A   1      26.368  -1.426  53.629  0.00  0.00    -0.275 OA
ENDBRANCH   1   2
BRANCH   1   7
ATOM      7  CA  ASN A   1      24.263  -3.025  55.234  0.00  0.00    +0.142 C 
BRANCH   7   8
ATOM      8  N   ASN A   1      23.209  -3.015  56.242  0.00  0.00    -0.239 NA
ATOM      9  H   ASN A   1      23.466  -2.873  57.240  0.00  0.00    +0.142 HD
ENDBRANCH   7   8
BRANCH   7  10
ATOM     10  C   ASN A   1      24.820  -4.388  54.832  0.00  0.00    +0.225 C 
ATOM     11  O   ASN A   1      24.996  -5.294  55.662  0.00  0.00    -0.287 OA
ENDBRANCH   7  10
ENDBRANCH   1   7
TORSDOF 4
REMARK  Name = ../refined-set-2016/4pcs/4pcs_pocket.pdb
REMARK  140 active torsions:
REMARK  status: ('A' for Active; 'I' for Inactive)
REMARK    1  A    between atoms: _1  and  _3
REMARK    2  A    between atoms: _3  and  _4
REMARK    3  A    between atoms: _3  and  _6
REMARK    4  A    between atoms: _6  and  _7
REMARK    5  A    between atoms: _13  and  _15
REMARK    6  A    between atoms: _15  and  _16
REMARK    7  A    between atoms: _15  and  _18
REMARK    8  A    between atoms: _18  and  _19
REMARK    9  A    between atoms: _22  and  _24
REMARK   10  A    between atoms: _24  and  _25
REMARK   11  A    between atoms: _24  and  _27
REMARK   12  A    between atoms: _27  and  _28
REMARK   13  A    between atoms: _33  and  _35
REMARK   14  A    between atoms: _35  and  _36
REMARK   15  A    between atoms: _35  and  _38
REMARK   16  A    between atoms: _38  and  _39
REMARK   17  A    between atoms: _44  and  _45
REMARK   18  A    between atoms: _47  and  _49
REMARK   19  A    between atoms: _49  and  _50
REMARK   20  A    between atoms: _53  and  _55
REMARK   21  A    between atoms: _55  and  _56
REMARK   22  A    between atoms: _59  and  _61
REMARK   23  A    between atoms: _61  and  _62
REMARK   24  A    between atoms: _61  and  _64
REMARK   25  A    between atoms: _64  and  _65
REMARK   26  A    between atoms: _65  and  _66
REMARK   27  A    between atoms: _69  and  _71
REMARK   28  A    between atoms: _71  and  _72
REMARK   29  A    between atoms: _71  and  _74
REMARK   30  A    between atoms: _74  and  _75
REMARK   31  A    between atoms: _85  and  _87
REMARK   32  A    between atoms: _87  and  _88
REMARK   33  A    between atoms: _87  and  _90
REMARK   34  A    between atoms: _90  and  _91
REMARK   35  A    between atoms: _93  and  _95
REMARK   36  A    between atoms: _95  and  _96
REMARK   37  A    between atoms: _95  and  _98
REMARK   38  A    between atoms: _98  and  _99
REMARK   39  A    between atoms: _109  and  _111
REMARK   40  A    between atoms: _111  and  _112
REMARK   41  A    between atoms: _111  and  _114
REMARK   42  A    between atoms: _114  and  _115
REMARK   43  A    between atoms: _118  and  _120
REMARK   44  A    between atoms: _120  and  _121
REMARK   45  A    between atoms: _120  and  _123
REMARK   46  A    between atoms: _123  and  _124
REMARK   47  A    between atoms: _124  and  _125
REMARK   48  A    between atoms: _125  and  _126
REMARK   49  A    between atoms: _126  and  _127
REMARK   50  A    between atoms: _131  and  _133
REMARK   51  A    between atoms: _133  and  _134
REMARK   52  A    between atoms: _133  and  _136
REMARK   53  A    between atoms: _136  and  _137
REMARK   54  A    between atoms: _142  and  _144
REMARK   55  A    between atoms: _144  and  _145
REMARK   56  A    between atoms: _144  and  _147
REMARK   57  A    between atoms: _147  and  _148
REMARK   58  A    between atoms: _153  and  _155
REMARK   59  A    between atoms: _155  and  _156
REMARK   60  A    between atoms: _155  and  _158
REMARK   61  A    between atoms: _158  and  _159
REMARK   62  A    between atoms: _164  and  _165
REMARK   63  A    between atoms: _167  and  _169
REMARK   64  A    between atoms: _169  and  _170
REMARK   65  A    between atoms: _169  and  _172
REMARK   66  A    between atoms: _172  and  _173
REMARK   67  A    between atoms: _175  and  _177
REMARK   68  A    between atoms: _177  and  _178
REMARK   69  A    between atoms: _177  and  _180
REMARK   70  A    between atoms: _181  and  _182
REMARK   71  A    between atoms: _184  and  _186
REMARK   72  A    between atoms: _186  and  _187
REMARK   73  A    between atoms: _186  and  _189
REMARK   74  A    between atoms: _189  and  _190
REMARK   75  A    between atoms: _200  and  _202
REMARK   76  A    between atoms: _202  and  _203
REMARK   77  A    between atoms: _202  and  _205
REMARK   78  A    between atoms: _205  and  _206
REMARK   79  A    between atoms: _216  and  _218
REMARK   80  A    between atoms: _218  and  _219
REMARK   81  A    between atoms: _218  and  _221
REMARK   82  A    between atoms: _221  and  _222
REMARK   83  A    between atoms: _228  and  _230
REMARK   84  A    between atoms: _230  and  _231
REMARK   85  A    between atoms: _230  and  _233
REMARK   86  A    between atoms: _233  and  _234
REMARK   87  A    between atoms: _237  and  _239
REMARK   88  A    between atoms: _239  and  _240
REMARK   89  A    between atoms: _242  and  _244
REMARK   90  A    between atoms: _244  and  _245
REMARK   91  A    between atoms: _244  and  _247
REMARK   92  A    between atoms: _247  and  _248
REMARK   93  A    between atoms: _258  and  _260
REMARK   94  A    between atoms: _260  and  _261
REMARK   95  A    between atoms: _260  and  _263
REMARK   96  A    between atoms: _263  and  _264
REMARK   97  A    between atoms: _264  and  _265
REMARK   98  A    between atoms: _265  and  _266
REMARK   99  A    between atoms: _275  and  _277
REMARK  100  A    between atoms: _277  and  _278
REMARK  101  A    between atoms: _277  and  _280
REMARK  102  A    between atoms: _280  and  _281
REMARK  103  A    between atoms: _281  and  _282
REMARK  104  A    between atoms: _285  and  _287
REMARK  105  A    between atoms: _287  and  _288
REMARK  106  A    between atoms: _287  and  _290
REMARK  107  A    between atoms: _290  and  _291
REMARK  108  A    between atoms: _291  and  _292
REMARK  109  A    between atoms: _292  and  _293
REMARK  110  A    between atoms: _302  and  _304
REMARK  111  A    between atoms: _304  and  _305
REMARK  112  A    between atoms: _304  and  _307
REMARK  113  A    between atoms: _309  and  _311
REMARK  114  A    between atoms: _311  and  _312
REMARK  115  A    between atoms: _311  and  _314
REMARK  116  A    between atoms: _314  and  _315
REMARK  117  A    between atoms: _315  and  _316
REMARK  118  A    between atoms: _318  and  _320
REMARK  119  A    between atoms: _320  and  _321
REMARK  120  A    between atoms: _320  and  _323
REMARK  121  A    between atoms: _323  and  _324
REMARK  122  A    between atoms: _327  and  _329
REMARK  123  A    between atoms: _329  and  _330
REMARK  124  A    between atoms: _329  and  _332
REMARK  125  A    between atoms: _332  and  _333
REMARK  126  A    between atoms: _338  and  _340
REMARK  127  A    between atoms: _340  and  _341
REMARK  128  A    between atoms: _340  and  _343
REMARK  129  A    between atoms: _343  and  _344
REMARK  130  A    between atoms: _344  and  _345
REMARK  131  A    between atoms: _350  and  _352
REMARK  132  A    between atoms: _352  and  _353
REMARK  133  A    between atoms: _352  and  _355
REMARK  134  A    between atoms: _355  and  _356
REMARK  135  A    between atoms: _366  and  _368
REMARK  136  A    between atoms: _368  and  _369
REMARK  137  A    between atoms: _371  and  _373
REMARK  138  A    between atoms: _373  and  _374
REMARK  139  A    between atoms: _373  and  _376
REMARK  140  A    between atoms: _376  and  _377
REMARK                            x       y       z     vdW  Elec       q    Type
REMARK                         _______ _______ _______ _____ _____    ______ ____
ROOT
ATOM      1  O   HOH     1      35.699   4.780  49.426  0.00  0.00    +0.000 OA
ENDROOT
TORSDOF 0
REMARK  Name = ../refined-set-2016/4pcs/4pcs_pocket.pdb
REMARK  140 active torsions:
REMARK  status: ('A' for Active; 'I' for Inactive)
REMARK    1  A    between atoms: _1  and  _3
REMARK    2  A    between atoms: _3  and  _4
REMARK    3  A    between atoms: _3  and  _6
REMARK    4  A    between atoms: _6  and  _7
REMARK    5  A    between atoms: _13  and  _15
REMARK    6  A    between atoms: _15  and  _16
REMARK    7  A    between atoms: _15  and  _18
REMARK    8  A    between atoms: _18  and  _19
REMARK    9  A    between atoms: _22  and  _24
REMARK   10  A    between atoms: _24  and  _25
REMARK   11  A    between atoms: _24  and  _27
REMARK   12  A    between atoms: _27  and  _28
REMARK   13  A    between atoms: _33  and  _35
REMARK   14  A    between atoms: _35  and  _36
REMARK   15  A    between atoms: _35  and  _38
REMARK   16  A    between atoms: _38  and  _39
REMARK   17  A    between atoms: _44  and  _45
REMARK   18  A    between atoms: _47  and  _49
REMARK   19  A    between atoms: _49  and  _50
REMARK   20  A    between atoms: _53  and  _55
REMARK   21  A    between atoms: _55  and  _56
REMARK   22  A    between atoms: _59  and  _61
REMARK   23  A    between atoms: _61  and  _62
REMARK   24  A    between atoms: _61  and  _64
REMARK   25  A    between atoms: _64  and  _65
REMARK   26  A    between atoms: _65  and  _66
REMARK   27  A    between atoms: _69  and  _71
REMARK   28  A    between atoms: _71  and  _72
REMARK   29  A    between atoms: _71  and  _74
REMARK   30  A    between atoms: _74  and  _75
REMARK   31  A    between atoms: _85  and  _87
REMARK   32  A    between atoms: _87  and  _88
REMARK   33  A    between atoms: _87  and  _90
REMARK   34  A    between atoms: _90  and  _91
REMARK   35  A    between atoms: _93  and  _95
REMARK   36  A    between atoms: _95  and  _96
REMARK   37  A    between atoms: _95  and  _98
REMARK   38  A    between atoms: _98  and  _99
REMARK   39  A    between atoms: _109  and  _111
REMARK   40  A    between atoms: _111  and  _112
REMARK   41  A    between atoms: _111  and  _114
REMARK   42  A    between atoms: _114  and  _115
REMARK   43  A    between atoms: _118  and  _120
REMARK   44  A    between atoms: _120  and  _121
REMARK   45  A    between atoms: _120  and  _123
REMARK   46  A    between atoms: _123  and  _124
REMARK   47  A    between atoms: _124  and  _125
REMARK   48  A    between atoms: _125  and  _126
REMARK   49  A    between atoms: _126  and  _127
REMARK   50  A    between atoms: _131  and  _133
REMARK   51  A    between atoms: _133  and  _134
REMARK   52  A    between atoms: _133  and  _136
REMARK   53  A    between atoms: _136  and  _137
REMARK   54  A    between atoms: _142  and  _144
REMARK   55  A    between atoms: _144  and  _145
REMARK   56  A    between atoms: _144  and  _147
REMARK   57  A    between atoms: _147  and  _148
REMARK   58  A    between atoms: _153  and  _155
REMARK   59  A    between atoms: _155  and  _156
REMARK   60  A    between atoms: _155  and  _158
REMARK   61  A    between atoms: _158  and  _159
REMARK   62  A    between atoms: _164  and  _165
REMARK   63  A    between atoms: _167  and  _169
REMARK   64  A    between atoms: _169  and  _170
REMARK   65  A    between atoms: _169  and  _172
REMARK   66  A    between atoms: _172  and  _173
REMARK   67  A    between atoms: _175  and  _177
REMARK   68  A    between atoms: _177  and  _178
REMARK   69  A    between atoms: _177  and  _180
REMARK   70  A    between atoms: _181  and  _182
REMARK   71  A    between atoms: _184  and  _186
REMARK   72  A    between atoms: _186  and  _187
REMARK   73  A    between atoms: _186  and  _189
REMARK   74  A    between atoms: _189  and  _190
REMARK   75  A    between atoms: _200  and  _202
REMARK   76  A    between atoms: _202  and  _203
REMARK   77  A    between atoms: _202  and  _205
REMARK   78  A    between atoms: _205  and  _206
REMARK   79  A    between atoms: _216  and  _218
REMARK   80  A    between atoms: _218  and  _219
REMARK   81  A    between atoms: _218  and  _221
REMARK   82  A    between atoms: _221  and  _222
REMARK   83  A    between atoms: _228  and  _230
REMARK   84  A    between atoms: _230  and  _231
REMARK   85  A    between atoms: _230  and  _233
REMARK   86  A    between atoms: _233  and  _234
REMARK   87  A    between atoms: _237  and  _239
REMARK   88  A    between atoms: _239  and  _240
REMARK   89  A    between atoms: _242  and  _244
REMARK   90  A    between atoms: _244  and  _245
REMARK   91  A    between atoms: _244  and  _247
REMARK   92  A    between atoms: _247  and  _248
REMARK   93  A    between atoms: _258  and  _260
REMARK   94  A    between atoms: _260  and  _261
REMARK   95  A    between atoms: _260  and  _263
REMARK   96  A    between atoms: _263  and  _264
REMARK   97  A    between atoms: _264  and  _265
REMARK   98  A    between atoms: _265  and  _266
REMARK   99  A    between atoms: _275  and  _277
REMARK  100  A    between atoms: _277  and  _278
REMARK  101  A    between atoms: _277  and  _280
REMARK  102  A    between atoms: _280  and  _281
REMARK  103  A    between atoms: _281  and  _282
REMARK  104  A    between atoms: _285  and  _287
REMARK  105  A    between atoms: _287  and  _288
REMARK  106  A    between atoms: _287  and  _290
REMARK  107  A    between atoms: _290  and  _291
REMARK  108  A    between atoms: _291  and  _292
REMARK  109  A    between atoms: _292  and  _293
REMARK  110  A    between atoms: _302  and  _304
REMARK  111  A    between atoms: _304  and  _305
REMARK  112  A    between atoms: _304  and  _307
REMARK  113  A    between atoms: _309  and  _311
REMARK  114  A    between atoms: _311  and  _312
REMARK  115  A    between atoms: _311  and  _314
REMARK  116  A    between atoms: _314  and  _315
REMARK  117  A    between atoms: _315  and  _316
REMARK  118  A    between atoms: _318  and  _320
REMARK  119  A    between atoms: _320  and  _321
REMARK  120  A    between atoms: _320  and  _323
REMARK  121  A    between atoms: _323  and  _324
REMARK  122  A    between atoms: _327  and  _329
REMARK  123  A    between atoms: _329  and  _330
REMARK  124  A    between atoms: _329  and  _332
REMARK  125  A    between atoms: _332  and  _333
REMARK  126  A    between atoms: _338  and  _340
REMARK  127  A    between atoms: _340  and  _341
REMARK  128  A    between atoms: _340  and  _343
REMARK  129  A    between atoms: _343  and  _344
REMARK  130  A    between atoms: _344  and  _345
REMARK  131  A    between atoms: _350  and  _352
REMARK  132  A    between atoms: _352  and  _353
REMARK  133  A    between atoms: _352  and  _355
REMARK  134  A    between atoms: _355  and  _356
REMARK  135  A    between atoms: _366  and  _368
REMARK  136  A    between atoms: _368  and  _369
REMARK  137  A    between atoms: _371  and  _373
REMARK  138  A    between atoms: _373  and  _374
REMARK  139  A    between atoms: _373  and  _376
REMARK  140  A    between atoms: _376  and  _377
REMARK                            x       y       z     vdW  Elec       q    Type
REMARK                         _______ _______ _______ _____ _____    ______ ____
ROOT
ATOM      1  O   HOH     1      20.787   5.382  55.894  0.00  0.00    +0.000 OA
ENDROOT
TORSDOF 0
REMARK  Name = ../refined-set-2016/4pcs/4pcs_pocket.pdb
REMARK  140 active torsions:
REMARK  status: ('A' for Active; 'I' for Inactive)
REMARK    1  A    between atoms: _1  and  _3
REMARK    2  A    between atoms: _3  and  _4
REMARK    3  A    between atoms: _3  and  _6
REMARK    4  A    between atoms: _6  and  _7
REMARK    5  A    between atoms: _13  and  _15
REMARK    6  A    between atoms: _15  and  _16
REMARK    7  A    between atoms: _15  and  _18
REMARK    8  A    between atoms: _18  and  _19
REMARK    9  A    between atoms: _22  and  _24
REMARK   10  A    between atoms: _24  and  _25
REMARK   11  A    between atoms: _24  and  _27
REMARK   12  A    between atoms: _27  and  _28
REMARK   13  A    between atoms: _33  and  _35
REMARK   14  A    between atoms: _35  and  _36
REMARK   15  A    between atoms: _35  and  _38
REMARK   16  A    between atoms: _38  and  _39
REMARK   17  A    between atoms: _44  and  _45
REMARK   18  A    between atoms: _47  and  _49
REMARK   19  A    between atoms: _49  and  _50
REMARK   20  A    between atoms: _53  and  _55
REMARK   21  A    between atoms: _55  and  _56
REMARK   22  A    between atoms: _59  and  _61
REMARK   23  A    between atoms: _61  and  _62
REMARK   24  A    between atoms: _61  and  _64
REMARK   25  A    between atoms: _64  and  _65
REMARK   26  A    between atoms: _65  and  _66
REMARK   27  A    between atoms: _69  and  _71
REMARK   28  A    between atoms: _71  and  _72
REMARK   29  A    between atoms: _71  and  _74
REMARK   30  A    between atoms: _74  and  _75
REMARK   31  A    between atoms: _85  and  _87
REMARK   32  A    between atoms: _87  and  _88
REMARK   33  A    between atoms: _87  and  _90
REMARK   34  A    between atoms: _90  and  _91
REMARK   35  A    between atoms: _93  and  _95
REMARK   36  A    between atoms: _95  and  _96
REMARK   37  A    between atoms: _95  and  _98
REMARK   38  A    between atoms: _98  and  _99
REMARK   39  A    between atoms: _109  and  _111
REMARK   40  A    between atoms: _111  and  _112
REMARK   41  A    between atoms: _111  and  _114
REMARK   42  A    between atoms: _114  and  _115
REMARK   43  A    between atoms: _118  and  _120
REMARK   44  A    between atoms: _120  and  _121
REMARK   45  A    between atoms: _120  and  _123
REMARK   46  A    between atoms: _123  and  _124
REMARK   47  A    between atoms: _124  and  _125
REMARK   48  A    between atoms: _125  and  _126
REMARK   49  A    between atoms: _126  and  _127
REMARK   50  A    between atoms: _131  and  _133
REMARK   51  A    between atoms: _133  and  _134
REMARK   52  A    between atoms: _133  and  _136
REMARK   53  A    between atoms: _136  and  _137
REMARK   54  A    between atoms: _142  and  _144
REMARK   55  A    between atoms: _144  and  _145
REMARK   56  A    between atoms: _144  and  _147
REMARK   57  A    between atoms: _147  and  _148
REMARK   58  A    between atoms: _153  and  _155
REMARK   59  A    between atoms: _155  and  _156
REMARK   60  A    between atoms: _155  and  _158
REMARK   61  A    between atoms: _158  and  _159
REMARK   62  A    between atoms: _164  and  _165
REMARK   63  A    between atoms: _167  and  _169
REMARK   64  A    between atoms: _169  and  _170
REMARK   65  A    between atoms: _169  and  _172
REMARK   66  A    between atoms: _172  and  _173
REMARK   67  A    between atoms: _175  and  _177
REMARK   68  A    between atoms: _177  and  _178
REMARK   69  A    between atoms: _177  and  _180
REMARK   70  A    between atoms: _181  and  _182
REMARK   71  A    between atoms: _184  and  _186
REMARK   72  A    between atoms: _186  and  _187
REMARK   73  A    between atoms: _186  and  _189
REMARK   74  A    between atoms: _189  and  _190
REMARK   75  A    between atoms: _200  and  _202
REMARK   76  A    between atoms: _202  and  _203
REMARK   77  A    between atoms: _202  and  _205
REMARK   78  A    between atoms: _205  and  _206
REMARK   79  A    between atoms: _216  and  _218
REMARK   80  A    between atoms: _218  and  _219
REMARK   81  A    between atoms: _218  and  _221
REMARK   82  A    between atoms: _221  and  _222
REMARK   83  A    between atoms: _228  and  _230
REMARK   84  A    between atoms: _230  and  _231
REMARK   85  A    between atoms: _230  and  _233
REMARK   86  A    between atoms: _233  and  _234
REMARK   87  A    between atoms: _237  and  _239
REMARK   88  A    between atoms: _239  and  _240
REMARK   89  A    between atoms: _242  and  _244
REMARK   90  A    between atoms: _244  and  _245
REMARK   91  A    between atoms: _244  and  _247
REMARK   92  A    between atoms: _247  and  _248
REMARK   93  A    between atoms: _258  and  _260
REMARK   94  A    between atoms: _260  and  _261
REMARK   95  A    between atoms: _260  and  _263
REMARK   96  A    between atoms: _263  and  _264
REMARK   97  A    between atoms: _264  and  _265
REMARK   98  A    between atoms: _265  and  _266
REMARK   99  A    between atoms: _275  and  _277
REMARK  100  A    between atoms: _277  and  _278
REMARK  101  A    between atoms: _277  and  _280
REMARK  102  A    between atoms: _280  and  _281
REMARK  103  A    between atoms: _281  and  _282
REMARK  104  A    between atoms: _285  and  _287
REMARK  105  A    between atoms: _287  and  _288
REMARK  106  A    between atoms: _287  and  _290
REMARK  107  A    between atoms: _290  and  _291
REMARK  108  A    between atoms: _291  and  _292
REMARK  109  A    between atoms: _292  and  _293
REMARK  110  A    between atoms: _302  and  _304
REMARK  111  A    between atoms: _304  and  _305
REMARK  112  A    between atoms: _304  and  _307
REMARK  113  A    between atoms: _309  and  _311
REMARK  114  A    between atoms: _311  and  _312
REMARK  115  A    between atoms: _311  and  _314
REMARK  116  A    between atoms: _314  and  _315
REMARK  117  A    between atoms: _315  and  _316
REMARK  118  A    between atoms: _318  and  _320
REMARK  119  A    between atoms: _320  and  _321
REMARK  120  A    between atoms: _320  and  _323
REMARK  121  A    between atoms: _323  and  _324
REMARK  122  A    between atoms: _327  and  _329
REMARK  123  A    between atoms: _329  and  _330
REMARK  124  A    between atoms: _329  and  _332
REMARK  125  A    between atoms: _332  and  _333
REMARK  126  A    between atoms: _338  and  _340
REMARK  127  A    between atoms: _340  and  _341
REMARK  128  A    between atoms: _340  and  _343
REMARK  129  A    between atoms: _343  and  _344
REMARK  130  A    between atoms: _344  and  _345
REMARK  131  A    between atoms: _350  and  _352
REMARK  132  A    between atoms: _352  and  _353
REMARK  133  A    between atoms: _352  and  _355
REMARK  134  A    between atoms: _355  and  _356
REMARK  135  A    between atoms: _366  and  _368
REMARK  136  A    between atoms: _368  and  _369
REMARK  137  A    between atoms: _371  and  _373
REMARK  138  A    between atoms: _373  and  _374
REMARK  139  A    between atoms: _373  and  _376
REMARK  140  A    between atoms: _376  and  _377
REMARK                            x       y       z     vdW  Elec       q    Type
REMARK                         _______ _______ _______ _____ _____    ______ ____
ROOT
ATOM      1  O   HOH     1      22.534   7.369  59.346  0.00  0.00    +0.000 OA
ENDROOT
TORSDOF 0
REMARK  Name = ../refined-set-2016/4pcs/4pcs_pocket.pdb
REMARK  140 active torsions:
REMARK  status: ('A' for Active; 'I' for Inactive)
REMARK    1  A    between atoms: _1  and  _3
REMARK    2  A    between atoms: _3  and  _4
REMARK    3  A    between atoms: _3  and  _6
REMARK    4  A    between atoms: _6  and  _7
REMARK    5  A    between atoms: _13  and  _15
REMARK    6  A    between atoms: _15  and  _16
REMARK    7  A    between atoms: _15  and  _18
REMARK    8  A    between atoms: _18  and  _19
REMARK    9  A    between atoms: _22  and  _24
REMARK   10  A    between atoms: _24  and  _25
REMARK   11  A    between atoms: _24  and  _27
REMARK   12  A    between atoms: _27  and  _28
REMARK   13  A    between atoms: _33  and  _35
REMARK   14  A    between atoms: _35  and  _36
REMARK   15  A    between atoms: _35  and  _38
REMARK   16  A    between atoms: _38  and  _39
REMARK   17  A    between atoms: _44  and  _45
REMARK   18  A    between atoms: _47  and  _49
REMARK   19  A    between atoms: _49  and  _50
REMARK   20  A    between atoms: _53  and  _55
REMARK   21  A    between atoms: _55  and  _56
REMARK   22  A    between atoms: _59  and  _61
REMARK   23  A    between atoms: _61  and  _62
REMARK   24  A    between atoms: _61  and  _64
REMARK   25  A    between atoms: _64  and  _65
REMARK   26  A    between atoms: _65  and  _66
REMARK   27  A    between atoms: _69  and  _71
REMARK   28  A    between atoms: _71  and  _72
REMARK   29  A    between atoms: _71  and  _74
REMARK   30  A    between atoms: _74  and  _75
REMARK   31  A    between atoms: _85  and  _87
REMARK   32  A    between atoms: _87  and  _88
REMARK   33  A    between atoms: _87  and  _90
REMARK   34  A    between atoms: _90  and  _91
REMARK   35  A    between atoms: _93  and  _95
REMARK   36  A    between atoms: _95  and  _96
REMARK   37  A    between atoms: _95  and  _98
REMARK   38  A    between atoms: _98  and  _99
REMARK   39  A    between atoms: _109  and  _111
REMARK   40  A    between atoms: _111  and  _112
REMARK   41  A    between atoms: _111  and  _114
REMARK   42  A    between atoms: _114  and  _115
REMARK   43  A    between atoms: _118  and  _120
REMARK   44  A    between atoms: _120  and  _121
REMARK   45  A    between atoms: _120  and  _123
REMARK   46  A    between atoms: _123  and  _124
REMARK   47  A    between atoms: _124  and  _125
REMARK   48  A    between atoms: _125  and  _126
REMARK   49  A    between atoms: _126  and  _127
REMARK   50  A    between atoms: _131  and  _133
REMARK   51  A    between atoms: _133  and  _134
REMARK   52  A    between atoms: _133  and  _136
REMARK   53  A    between atoms: _136  and  _137
REMARK   54  A    between atoms: _142  and  _144
REMARK   55  A    between atoms: _144  and  _145
REMARK   56  A    between atoms: _144  and  _147
REMARK   57  A    between atoms: _147  and  _148
REMARK   58  A    between atoms: _153  and  _155
REMARK   59  A    between atoms: _155  and  _156
REMARK   60  A    between atoms: _155  and  _158
REMARK   61  A    between atoms: _158  and  _159
REMARK   62  A    between atoms: _164  and  _165
REMARK   63  A    between atoms: _167  and  _169
REMARK   64  A    between atoms: _169  and  _170
REMARK   65  A    between atoms: _169  and  _172
REMARK   66  A    between atoms: _172  and  _173
REMARK   67  A    between atoms: _175  and  _177
REMARK   68  A    between atoms: _177  and  _178
REMARK   69  A    between atoms: _177  and  _180
REMARK   70  A    between atoms: _181  and  _182
REMARK   71  A    between atoms: _184  and  _186
REMARK   72  A    between atoms: _186  and  _187
REMARK   73  A    between atoms: _186  and  _189
REMARK   74  A    between atoms: _189  and  _190
REMARK   75  A    between atoms: _200  and  _202
REMARK   76  A    between atoms: _202  and  _203
REMARK   77  A    between atoms: _202  and  _205
REMARK   78  A    between atoms: _205  and  _206
REMARK   79  A    between atoms: _216  and  _218
REMARK   80  A    between atoms: _218  and  _219
REMARK   81  A    between atoms: _218  and  _221
REMARK   82  A    between atoms: _221  and  _222
REMARK   83  A    between atoms: _228  and  _230
REMARK   84  A    between atoms: _230  and  _231
REMARK   85  A    between atoms: _230  and  _233
REMARK   86  A    between atoms: _233  and  _234
REMARK   87  A    between atoms: _237  and  _239
REMARK   88  A    between atoms: _239  and  _240
REMARK   89  A    between atoms: _242  and  _244
REMARK   90  A    between atoms: _244  and  _245
REMARK   91  A    between atoms: _244  and  _247
REMARK   92  A    between atoms: _247  and  _248
REMARK   93  A    between atoms: _258  and  _260
REMARK   94  A    between atoms: _260  and  _261
REMARK   95  A    between atoms: _260  and  _263
REMARK   96  A    between atoms: _263  and  _264
REMARK   97  A    between atoms: _264  and  _265
REMARK   98  A    between atoms: _265  and  _266
REMARK   99  A    between atoms: _275  and  _277
REMARK  100  A    between atoms: _277  and  _278
REMARK  101  A    between atoms: _277  and  _280
REMARK  102  A    between atoms: _280  and  _281
REMARK  103  A    between atoms: _281  and  _282
REMARK  104  A    between atoms: _285  and  _287
REMARK  105  A    between atoms: _287  and  _288
REMARK  106  A    between atoms: _287  and  _290
REMARK  107  A    between atoms: _290  and  _291
REMARK  108  A    between atoms: _291  and  _292
REMARK  109  A    between atoms: _292  and  _293
REMARK  110  A    between atoms: _302  and  _304
REMARK  111  A    between atoms: _304  and  _305
REMARK  112  A    between atoms: _304  and  _307
REMARK  113  A    between atoms: _309  and  _311
REMARK  114  A    between atoms: _311  and  _312
REMARK  115  A    between atoms: _311  and  _314
REMARK  116  A    between atoms: _314  and  _315
REMARK  117  A    between atoms: _315  and  _316
REMARK  118  A    between atoms: _318  and  _320
REMARK  119  A    between atoms: _320  and  _321
REMARK  120  A    between atoms: _320  and  _323
REMARK  121  A    between atoms: _323  and  _324
REMARK  122  A    between atoms: _327  and  _329
REMARK  123  A    between atoms: _329  and  _330
REMARK  124  A    between atoms: _329  and  _332
REMARK  125  A    between atoms: _332  and  _333
REMARK  126  A    between atoms: _338  and  _340
REMARK  127  A    between atoms: _340  and  _341
REMARK  128  A    between atoms: _340  and  _343
REMARK  129  A    between atoms: _343  and  _344
REMARK  130  A    between atoms: _344  and  _345
REMARK  131  A    between atoms: _350  and  _352
REMARK  132  A    between atoms: _352  and  _353
REMARK  133  A    between atoms: _352  and  _355
REMARK  134  A    between atoms: _355  and  _356
REMARK  135  A    between atoms: _366  and  _368
REMARK  136  A    between atoms: _368  and  _369
REMARK  137  A    between atoms: _371  and  _373
REMARK  138  A    between atoms: _373  and  _374
REMARK  139  A    between atoms: _373  and  _376
REMARK  140  A    between atoms: _376  and  _377
REMARK                            x       y       z     vdW  Elec       q    Type
REMARK                         _______ _______ _______ _____ _____    ______ ____
ROOT
ATOM      1  O   HOH     1      32.376   3.710  59.769  0.00  0.00    +0.000 OA
ENDROOT
TORSDOF 0
REMARK  Name = ../refined-set-2016/4pcs/4pcs_pocket.pdb
REMARK  140 active torsions:
REMARK  status: ('A' for Active; 'I' for Inactive)
REMARK    1  A    between atoms: _1  and  _3
REMARK    2  A    between atoms: _3  and  _4
REMARK    3  A    between atoms: _3  and  _6
REMARK    4  A    between atoms: _6  and  _7
REMARK    5  A    between atoms: _13  and  _15
REMARK    6  A    between atoms: _15  and  _16
REMARK    7  A    between atoms: _15  and  _18
REMARK    8  A    between atoms: _18  and  _19
REMARK    9  A    between atoms: _22  and  _24
REMARK   10  A    between atoms: _24  and  _25
REMARK   11  A    between atoms: _24  and  _27
REMARK   12  A    between atoms: _27  and  _28
REMARK   13  A    between atoms: _33  and  _35
REMARK   14  A    between atoms: _35  and  _36
REMARK   15  A    between atoms: _35  and  _38
REMARK   16  A    between atoms: _38  and  _39
REMARK   17  A    between atoms: _44  and  _45
REMARK   18  A    between atoms: _47  and  _49
REMARK   19  A    between atoms: _49  and  _50
REMARK   20  A    between atoms: _53  and  _55
REMARK   21  A    between atoms: _55  and  _56
REMARK   22  A    between atoms: _59  and  _61
REMARK   23  A    between atoms: _61  and  _62
REMARK   24  A    between atoms: _61  and  _64
REMARK   25  A    between atoms: _64  and  _65
REMARK   26  A    between atoms: _65  and  _66
REMARK   27  A    between atoms: _69  and  _71
REMARK   28  A    between atoms: _71  and  _72
REMARK   29  A    between atoms: _71  and  _74
REMARK   30  A    between atoms: _74  and  _75
REMARK   31  A    between atoms: _85  and  _87
REMARK   32  A    between atoms: _87  and  _88
REMARK   33  A    between atoms: _87  and  _90
REMARK   34  A    between atoms: _90  and  _91
REMARK   35  A    between atoms: _93  and  _95
REMARK   36  A    between atoms: _95  and  _96
REMARK   37  A    between atoms: _95  and  _98
REMARK   38  A    between atoms: _98  and  _99
REMARK   39  A    between atoms: _109  and  _111
REMARK   40  A    between atoms: _111  and  _112
REMARK   41  A    between atoms: _111  and  _114
REMARK   42  A    between atoms: _114  and  _115
REMARK   43  A    between atoms: _118  and  _120
REMARK   44  A    between atoms: _120  and  _121
REMARK   45  A    between atoms: _120  and  _123
REMARK   46  A    between atoms: _123  and  _124
REMARK   47  A    between atoms: _124  and  _125
REMARK   48  A    between atoms: _125  and  _126
REMARK   49  A    between atoms: _126  and  _127
REMARK   50  A    between atoms: _131  and  _133
REMARK   51  A    between atoms: _133  and  _134
REMARK   52  A    between atoms: _133  and  _136
REMARK   53  A    between atoms: _136  and  _137
REMARK   54  A    between atoms: _142  and  _144
REMARK   55  A    between atoms: _144  and  _145
REMARK   56  A    between atoms: _144  and  _147
REMARK   57  A    between atoms: _147  and  _148
REMARK   58  A    between atoms: _153  and  _155
REMARK   59  A    between atoms: _155  and  _156
REMARK   60  A    between atoms: _155  and  _158
REMARK   61  A    between atoms: _158  and  _159
REMARK   62  A    between atoms: _164  and  _165
REMARK   63  A    between atoms: _167  and  _169
REMARK   64  A    between atoms: _169  and  _170
REMARK   65  A    between atoms: _169  and  _172
REMARK   66  A    between atoms: _172  and  _173
REMARK   67  A    between atoms: _175  and  _177
REMARK   68  A    between atoms: _177  and  _178
REMARK   69  A    between atoms: _177  and  _180
REMARK   70  A    between atoms: _181  and  _182
REMARK   71  A    between atoms: _184  and  _186
REMARK   72  A    between atoms: _186  and  _187
REMARK   73  A    between atoms: _186  and  _189
REMARK   74  A    between atoms: _189  and  _190
REMARK   75  A    between atoms: _200  and  _202
REMARK   76  A    between atoms: _202  and  _203
REMARK   77  A    between atoms: _202  and  _205
REMARK   78  A    between atoms: _205  and  _206
REMARK   79  A    between atoms: _216  and  _218
REMARK   80  A    between atoms: _218  and  _219
REMARK   81  A    between atoms: _218  and  _221
REMARK   82  A    between atoms: _221  and  _222
REMARK   83  A    between atoms: _228  and  _230
REMARK   84  A    between atoms: _230  and  _231
REMARK   85  A    between atoms: _230  and  _233
REMARK   86  A    between atoms: _233  and  _234
REMARK   87  A    between atoms: _237  and  _239
REMARK   88  A    between atoms: _239  and  _240
REMARK   89  A    between atoms: _242  and  _244
REMARK   90  A    between atoms: _244  and  _245
REMARK   91  A    between atoms: _244  and  _247
REMARK   92  A    between atoms: _247  and  _248
REMARK   93  A    between atoms: _258  and  _260
REMARK   94  A    between atoms: _260  and  _261
REMARK   95  A    between atoms: _260  and  _263
REMARK   96  A    between atoms: _263  and  _264
REMARK   97  A    between atoms: _264  and  _265
REMARK   98  A    between atoms: _265  and  _266
REMARK   99  A    between atoms: _275  and  _277
REMARK  100  A    between atoms: _277  and  _278
REMARK  101  A    between atoms: _277  and  _280
REMARK  102  A    between atoms: _280  and  _281
REMARK  103  A    between atoms: _281  and  _282
REMARK  104  A    between atoms: _285  and  _287
REMARK  105  A    between atoms: _287  and  _288
REMARK  106  A    between atoms: _287  and  _290
REMARK  107  A    between atoms: _290  and  _291
REMARK  108  A    between atoms: _291  and  _292
REMARK  109  A    between atoms: _292  and  _293
REMARK  110  A    between atoms: _302  and  _304
REMARK  111  A    between atoms: _304  and  _305
REMARK  112  A    between atoms: _304  and  _307
REMARK  113  A    between atoms: _309  and  _311
REMARK  114  A    between atoms: _311  and  _312
REMARK  115  A    between atoms: _311  and  _314
REMARK  116  A    between atoms: _314  and  _315
REMARK  117  A    between atoms: _315  and  _316
REMARK  118  A    between atoms: _318  and  _320
REMARK  119  A    between atoms: _320  and  _321
REMARK  120  A    between atoms: _320  and  _323
REMARK  121  A    between atoms: _323  and  _324
REMARK  122  A    between atoms: _327  and  _329
REMARK  123  A    between atoms: _329  and  _330
REMARK  124  A    between atoms: _329  and  _332
REMARK  125  A    between atoms: _332  and  _333
REMARK  126  A    between atoms: _338  and  _340
REMARK  127  A    between atoms: _340  and  _341
REMARK  128  A    between atoms: _340  and  _343
REMARK  129  A    between atoms: _343  and  _344
REMARK  130  A    between atoms: _344  and  _345
REMARK  131  A    between atoms: _350  and  _352
REMARK  132  A    between atoms: _352  and  _353
REMARK  133  A    between atoms: _352  and  _355
REMARK  134  A    between atoms: _355  and  _356
REMARK  135  A    between atoms: _366  and  _368
REMARK  136  A    between atoms: _368  and  _369
REMARK  137  A    between atoms: _371  and  _373
REMARK  138  A    between atoms: _373  and  _374
REMARK  139  A    between atoms: _373  and  _376
REMARK  140  A    between atoms: _376  and  _377
REMARK                            x       y       z     vdW  Elec       q    Type
REMARK                         _______ _______ _______ _____ _____    ______ ____
ROOT
ATOM      1  O   HOH     1      28.471   9.368  60.913  0.00  0.00    +0.000 OA
ENDROOT
TORSDOF 0
