REMARK  Name = ../refined-set-2016/4lov/4lov_pocket.pdb
REMARK  122 active torsions:
REMARK  status: ('A' for Active; 'I' for Inactive)
REMARK    1  A    between atoms: _1  and  _5
REMARK    2  A    between atoms: _5  and  _6
REMARK    3  A    between atoms: _5  and  _8
REMARK    4  A    between atoms: _6  and  _7
REMARK    5  A    between atoms: _6  and  _15
REMARK    6  A    between atoms: _8  and  _9
REMARK    7  A    between atoms: _15  and  _17
REMARK    8  A    between atoms: _17  and  _18
REMARK    9  A    between atoms: _22  and  _23
REMARK   10  A    between atoms: _28  and  _30
REMARK   11  A    between atoms: _30  and  _31
REMARK   12  A    between atoms: _30  and  _33
REMARK   13  A    between atoms: _33  and  _34
REMARK   14  A    between atoms: _37  and  _39
REMARK   15  A    between atoms: _39  and  _40
REMARK   16  A    between atoms: _42  and  _44
REMARK   17  A    between atoms: _44  and  _45
REMARK   18  A    between atoms: _47  and  _49
REMARK   19  A    between atoms: _49  and  _50
REMARK   20  A    between atoms: _49  and  _52
REMARK   21  A    between atoms: _52  and  _53
REMARK   22  A    between atoms: _58  and  _60
REMARK   23  A    between atoms: _60  and  _61
REMARK   24  A    between atoms: _60  and  _63
REMARK   25  A    between atoms: _63  and  _64
REMARK   26  A    between atoms: _69  and  _71
REMARK   27  A    between atoms: _71  and  _72
REMARK   28  A    between atoms: _71  and  _74
REMARK   29  A    between atoms: _74  and  _75
REMARK   30  A    between atoms: _78  and  _80
REMARK   31  A    between atoms: _80  and  _81
REMARK   32  A    between atoms: _80  and  _83
REMARK   33  A    between atoms: _83  and  _84
REMARK   34  A    between atoms: _89  and  _90
REMARK   35  A    between atoms: _93  and  _94
REMARK   36  A    between atoms: _99  and  _101
REMARK   37  A    between atoms: _101  and  _102
REMARK   38  A    between atoms: _101  and  _104
REMARK   39  A    between atoms: _104  and  _105
REMARK   40  A    between atoms: _105  and  _106
REMARK   41  A    between atoms: _109  and  _111
REMARK   42  A    between atoms: _111  and  _112
REMARK   43  A    between atoms: _111  and  _114
REMARK   44  A    between atoms: _114  and  _115
REMARK   45  A    between atoms: _118  and  _120
REMARK   46  A    between atoms: _120  and  _121
REMARK   47  A    between atoms: _120  and  _123
REMARK   48  A    between atoms: _123  and  _124
REMARK   49  A    between atoms: _127  and  _129
REMARK   50  A    between atoms: _129  and  _130
REMARK   51  A    between atoms: _129  and  _132
REMARK   52  A    between atoms: _132  and  _133
REMARK   53  A    between atoms: _136  and  _138
REMARK   54  A    between atoms: _138  and  _139
REMARK   55  A    between atoms: _138  and  _141
REMARK   56  A    between atoms: _141  and  _142
REMARK   57  A    between atoms: _145  and  _147
REMARK   58  A    between atoms: _147  and  _148
REMARK   59  A    between atoms: _147  and  _150
REMARK   60  A    between atoms: _150  and  _151
REMARK   61  A    between atoms: _156  and  _157
REMARK   62  A    between atoms: _159  and  _161
REMARK   63  A    between atoms: _161  and  _162
REMARK   64  A    between atoms: _161  and  _164
REMARK   65  A    between atoms: _164  and  _165
REMARK   66  A    between atoms: _170  and  _171
REMARK   67  A    between atoms: _173  and  _175
REMARK   68  A    between atoms: _175  and  _176
REMARK   69  A    between atoms: _175  and  _178
REMARK   70  A    between atoms: _178  and  _179
REMARK   71  A    between atoms: _181  and  _183
REMARK   72  A    between atoms: _183  and  _184
REMARK   73  A    between atoms: _183  and  _186
REMARK   74  A    between atoms: _186  and  _187
REMARK   75  A    between atoms: _187  and  _188
REMARK   76  A    between atoms: _188  and  _189
REMARK   77  A    between atoms: _198  and  _200
REMARK   78  A    between atoms: _200  and  _201
REMARK   79  A    between atoms: _200  and  _203
REMARK   80  A    between atoms: _203  and  _204
REMARK   81  A    between atoms: _204  and  _205
REMARK   82  A    between atoms: _210  and  _212
REMARK   83  A    between atoms: _212  and  _213
REMARK   84  A    between atoms: _212  and  _215
REMARK   85  A    between atoms: _215  and  _216
REMARK   86  A    between atoms: _219  and  _221
REMARK   87  A    between atoms: _221  and  _222
REMARK   88  A    between atoms: _221  and  _224
REMARK   89  A    between atoms: _224  and  _225
REMARK   90  A    between atoms: _230  and  _232
REMARK   91  A    between atoms: _232  and  _233
REMARK   92  A    between atoms: _232  and  _235
REMARK   93  A    between atoms: _235  and  _236
REMARK   94  A    between atoms: _241  and  _243
REMARK   95  A    between atoms: _243  and  _244
REMARK   96  A    between atoms: _243  and  _246
REMARK   97  A    between atoms: _246  and  _247
REMARK   98  A    between atoms: _252  and  _253
REMARK   99  A    between atoms: _255  and  _257
REMARK  100  A    between atoms: _257  and  _258
REMARK  101  A    between atoms: _257  and  _260
REMARK  102  A    between atoms: _260  and  _261
REMARK  103  A    between atoms: _266  and  _268
REMARK  104  A    between atoms: _268  and  _269
REMARK  105  A    between atoms: _268  and  _271
REMARK  106  A    between atoms: _271  and  _272
REMARK  107  A    between atoms: _274  and  _276
REMARK  108  A    between atoms: _276  and  _277
REMARK  109  A    between atoms: _276  and  _279
REMARK  110  A    between atoms: _279  and  _280
REMARK  111  A    between atoms: _283  and  _285
REMARK  112  A    between atoms: _285  and  _286
REMARK  113  A    between atoms: _285  and  _288
REMARK  114  A    between atoms: _288  and  _289
REMARK  115  A    between atoms: _292  and  _294
REMARK  116  A    between atoms: _294  and  _295
REMARK  117  A    between atoms: _294  and  _297
REMARK  118  A    between atoms: _297  and  _298
REMARK  119  A    between atoms: _304  and  _306
REMARK  120  A    between atoms: _306  and  _307
REMARK  121  A    between atoms: _306  and  _309
REMARK  122  A    between atoms: _309  and  _310
REMARK                            x       y       z     vdW  Elec       q    Type
REMARK                         _______ _______ _______ _____ _____    ______ ____
ROOT
ATOM      1  C   UNK A   0       9.891  -5.020 -31.296  0.00  0.00    +0.000 C 
ENDROOT
BRANCH   1   2
ATOM      2  N   UNK A   0      10.058  -4.852 -32.746  0.00  0.00    +0.000 N 
ATOM      3  H   UNK A   0      11.069  -4.904 -32.986  0.00  0.00    +0.000 HD
ATOM      4  H   UNK A   0       9.680  -3.926 -33.032  0.00  0.00    +0.000 HD
ATOM      5  H   UNK A   0       9.543  -5.607 -33.243  0.00  0.00    +0.000 HD
ENDBRANCH   1   2
BRANCH   1   6
ATOM      6  C   UNK A   0      10.636  -3.926 -30.542  0.00  0.00    +0.000 C 
BRANCH   6   7
ATOM      7  N   ALA A   1       9.926  -3.257 -29.634  0.00  0.00    +0.000 NA
ATOM      8  H   ALA A   1       8.929  -3.512 -29.482  0.00  0.00    +0.000 HD
BRANCH   7   9
ATOM      9  CA  ALA A   1      10.511  -2.175 -28.847  0.00  0.00    +0.000 C 
ATOM     10  CB  ALA A   1      10.492  -0.871 -29.641  0.00  0.00    +0.000 C 
BRANCH   9  11
ATOM     11  C   ALA A   1       9.701  -2.042 -27.585  0.00  0.00    +0.000 C 
ATOM     12  O   ALA A   1       8.599  -2.594 -27.491  0.00  0.00    +0.000 OA
ENDBRANCH   9  11
ENDBRANCH   7   9
ENDBRANCH   6   7
BRANCH   6  13
ATOM     13  O   UNK A   0      11.826  -3.698 -30.784  0.00  0.00    +0.000 OA
ATOM     14 NA   UNK A   0      13.968  -5.284 -31.350  0.00  0.00    +0.000 Na
ENDBRANCH   6  13
ENDBRANCH   1   6
BRANCH   1  15
ATOM     15  C   UNK A   0      10.399  -6.395 -30.821  0.00  0.00    +0.000 C 
BRANCH  15  16
ATOM     16  C   UNK A   0      10.198  -6.599 -29.339  0.00  0.00    +0.000 A 
ATOM     17  C   UNK A   0      11.173  -6.193 -28.422  0.00  0.00    +0.000 A 
ATOM     18  C   UNK A   0      11.010  -6.415 -27.057  0.00  0.00    +0.000 A 
ATOM     19  C   UNK A   0       9.847  -6.997 -26.588  0.00  0.00    +0.000 A 
ATOM     20  C   UNK A   0       8.866  -7.410 -27.481  0.00  0.00    +0.000 A 
ATOM     21  C   UNK A   0       9.048  -7.206 -28.858  0.00  0.00    +0.000 A 
ENDBRANCH  15  16
ENDBRANCH   1  15
TORSDOF 8
REMARK  Name = ../refined-set-2016/4lov/4lov_pocket.pdb
REMARK  122 active torsions:
REMARK  status: ('A' for Active; 'I' for Inactive)
REMARK    1  A    between atoms: _1  and  _5
REMARK    2  A    between atoms: _5  and  _6
REMARK    3  A    between atoms: _5  and  _8
REMARK    4  A    between atoms: _6  and  _7
REMARK    5  A    between atoms: _6  and  _15
REMARK    6  A    between atoms: _8  and  _9
REMARK    7  A    between atoms: _15  and  _17
REMARK    8  A    between atoms: _17  and  _18
REMARK    9  A    between atoms: _22  and  _23
REMARK   10  A    between atoms: _28  and  _30
REMARK   11  A    between atoms: _30  and  _31
REMARK   12  A    between atoms: _30  and  _33
REMARK   13  A    between atoms: _33  and  _34
REMARK   14  A    between atoms: _37  and  _39
REMARK   15  A    between atoms: _39  and  _40
REMARK   16  A    between atoms: _42  and  _44
REMARK   17  A    between atoms: _44  and  _45
REMARK   18  A    between atoms: _47  and  _49
REMARK   19  A    between atoms: _49  and  _50
REMARK   20  A    between atoms: _49  and  _52
REMARK   21  A    between atoms: _52  and  _53
REMARK   22  A    between atoms: _58  and  _60
REMARK   23  A    between atoms: _60  and  _61
REMARK   24  A    between atoms: _60  and  _63
REMARK   25  A    between atoms: _63  and  _64
REMARK   26  A    between atoms: _69  and  _71
REMARK   27  A    between atoms: _71  and  _72
REMARK   28  A    between atoms: _71  and  _74
REMARK   29  A    between atoms: _74  and  _75
REMARK   30  A    between atoms: _78  and  _80
REMARK   31  A    between atoms: _80  and  _81
REMARK   32  A    between atoms: _80  and  _83
REMARK   33  A    between atoms: _83  and  _84
REMARK   34  A    between atoms: _89  and  _90
REMARK   35  A    between atoms: _93  and  _94
REMARK   36  A    between atoms: _99  and  _101
REMARK   37  A    between atoms: _101  and  _102
REMARK   38  A    between atoms: _101  and  _104
REMARK   39  A    between atoms: _104  and  _105
REMARK   40  A    between atoms: _105  and  _106
REMARK   41  A    between atoms: _109  and  _111
REMARK   42  A    between atoms: _111  and  _112
REMARK   43  A    between atoms: _111  and  _114
REMARK   44  A    between atoms: _114  and  _115
REMARK   45  A    between atoms: _118  and  _120
REMARK   46  A    between atoms: _120  and  _121
REMARK   47  A    between atoms: _120  and  _123
REMARK   48  A    between atoms: _123  and  _124
REMARK   49  A    between atoms: _127  and  _129
REMARK   50  A    between atoms: _129  and  _130
REMARK   51  A    between atoms: _129  and  _132
REMARK   52  A    between atoms: _132  and  _133
REMARK   53  A    between atoms: _136  and  _138
REMARK   54  A    between atoms: _138  and  _139
REMARK   55  A    between atoms: _138  and  _141
REMARK   56  A    between atoms: _141  and  _142
REMARK   57  A    between atoms: _145  and  _147
REMARK   58  A    between atoms: _147  and  _148
REMARK   59  A    between atoms: _147  and  _150
REMARK   60  A    between atoms: _150  and  _151
REMARK   61  A    between atoms: _156  and  _157
REMARK   62  A    between atoms: _159  and  _161
REMARK   63  A    between atoms: _161  and  _162
REMARK   64  A    between atoms: _161  and  _164
REMARK   65  A    between atoms: _164  and  _165
REMARK   66  A    between atoms: _170  and  _171
REMARK   67  A    between atoms: _173  and  _175
REMARK   68  A    between atoms: _175  and  _176
REMARK   69  A    between atoms: _175  and  _178
REMARK   70  A    between atoms: _178  and  _179
REMARK   71  A    between atoms: _181  and  _183
REMARK   72  A    between atoms: _183  and  _184
REMARK   73  A    between atoms: _183  and  _186
REMARK   74  A    between atoms: _186  and  _187
REMARK   75  A    between atoms: _187  and  _188
REMARK   76  A    between atoms: _188  and  _189
REMARK   77  A    between atoms: _198  and  _200
REMARK   78  A    between atoms: _200  and  _201
REMARK   79  A    between atoms: _200  and  _203
REMARK   80  A    between atoms: _203  and  _204
REMARK   81  A    between atoms: _204  and  _205
REMARK   82  A    between atoms: _210  and  _212
REMARK   83  A    between atoms: _212  and  _213
REMARK   84  A    between atoms: _212  and  _215
REMARK   85  A    between atoms: _215  and  _216
REMARK   86  A    between atoms: _219  and  _221
REMARK   87  A    between atoms: _221  and  _222
REMARK   88  A    between atoms: _221  and  _224
REMARK   89  A    between atoms: _224  and  _225
REMARK   90  A    between atoms: _230  and  _232
REMARK   91  A    between atoms: _232  and  _233
REMARK   92  A    between atoms: _232  and  _235
REMARK   93  A    between atoms: _235  and  _236
REMARK   94  A    between atoms: _241  and  _243
REMARK   95  A    between atoms: _243  and  _244
REMARK   96  A    between atoms: _243  and  _246
REMARK   97  A    between atoms: _246  and  _247
REMARK   98  A    between atoms: _252  and  _253
REMARK   99  A    between atoms: _255  and  _257
REMARK  100  A    between atoms: _257  and  _258
REMARK  101  A    between atoms: _257  and  _260
REMARK  102  A    between atoms: _260  and  _261
REMARK  103  A    between atoms: _266  and  _268
REMARK  104  A    between atoms: _268  and  _269
REMARK  105  A    between atoms: _268  and  _271
REMARK  106  A    between atoms: _271  and  _272
REMARK  107  A    between atoms: _274  and  _276
REMARK  108  A    between atoms: _276  and  _277
REMARK  109  A    between atoms: _276  and  _279
REMARK  110  A    between atoms: _279  and  _280
REMARK  111  A    between atoms: _283  and  _285
REMARK  112  A    between atoms: _285  and  _286
REMARK  113  A    between atoms: _285  and  _288
REMARK  114  A    between atoms: _288  and  _289
REMARK  115  A    between atoms: _292  and  _294
REMARK  116  A    between atoms: _294  and  _295
REMARK  117  A    between atoms: _294  and  _297
REMARK  118  A    between atoms: _297  and  _298
REMARK  119  A    between atoms: _304  and  _306
REMARK  120  A    between atoms: _306  and  _307
REMARK  121  A    between atoms: _306  and  _309
REMARK  122  A    between atoms: _309  and  _310
REMARK                            x       y       z     vdW  Elec       q    Type
REMARK                         _______ _______ _______ _____ _____    ______ ____
ROOT
ATOM      1  CA  ILE A   2      14.403  -1.947 -32.150  0.00  0.00    +0.148 C 
ENDROOT
BRANCH   1   4
ATOM      2  C   PRO A   1      14.400  -0.439 -30.183  0.00  0.00    +0.239 C 
ATOM      3  O   PRO A   1      15.100  -1.205 -29.488  0.00  0.00    -0.274 OA
ATOM      4  N   ILE A   2      13.998  -0.722 -31.441  0.00  0.00    -0.297 N 
ATOM      5  H   ILE A   2      13.376  -0.046 -31.929  0.00  0.00    +0.150 HD
BRANCH   2  10
ATOM      6  N   PRO A   1      14.543   1.223 -28.333  0.00  0.00    -0.210 NA
ATOM      7  CD  PRO A   1      15.765   2.061 -28.388  0.00  0.00    +0.089 C 
ATOM      8  CG  PRO A   1      16.075   2.157 -29.877  0.00  0.00    +0.021 C 
ATOM      9  CB  PRO A   1      14.694   2.013 -30.524  0.00  0.00    +0.028 C 
ATOM     10  CA  PRO A   1      14.013   0.936 -29.679  0.00  0.00    +0.149 C 
ENDBRANCH   2  10
ENDBRANCH   1   4
BRANCH   1  11
ATOM     11  C   ILE A   2      15.907  -2.129 -31.971  0.00  0.00    +0.241 C 
ATOM     12  N   GLY A   3      16.310  -3.349 -31.650  0.00  0.00    -0.295 N 
ATOM     13  H   GLY A   3      15.591  -4.092 -31.537  0.00  0.00    +0.150 HD
ATOM     14  O   ILE A   2      16.669  -1.167 -32.140  0.00  0.00    -0.273 OA
BRANCH  12  15
ATOM     15  CA  GLY A   3      17.715  -3.707 -31.446  0.00  0.00    +0.176 C 
BRANCH  15  16
ATOM     16  C   GLY A   3      18.184  -3.711 -30.000  0.00  0.00    +0.243 C 
ATOM     17  N   GLY A   4      17.322  -3.281 -29.087  0.00  0.00    -0.296 N 
ATOM     18  H   GLY A   4      16.387  -2.935 -29.383  0.00  0.00    +0.150 HD
ATOM     19  O   GLY A   3      19.319  -4.094 -29.713  0.00  0.00    -0.273 OA
BRANCH  17  20
ATOM     20  CA  GLY A   4      17.673  -3.290 -27.676  0.00  0.00    +0.163 C 
BRANCH  20  21
ATOM     21  C   GLY A   4      18.447  -2.080 -27.214  0.00  0.00    +0.229 C 
ATOM     22  O   GLY A   4      18.605  -1.090 -27.943  0.00  0.00    -0.286 OA
ENDBRANCH  20  21
ENDBRANCH  17  20
ENDBRANCH  15  16
ENDBRANCH  12  15
ENDBRANCH   1  11
BRANCH   1  23
ATOM     23  CB  ILE A   2      14.044  -1.795 -33.656  0.00  0.00    +0.027 C 
ATOM     24  CG2 ILE A   2      14.825  -2.780 -34.561  0.00  0.00    +0.002 C 
BRANCH  23  25
ATOM     25  CG1 ILE A   2      12.525  -1.923 -33.838  0.00  0.00    +0.002 C 
ATOM     26  CD1 ILE A   2      12.044  -1.485 -35.202  0.00  0.00    +0.000 C 
ENDBRANCH  23  25
ENDBRANCH   1  23
TORSDOF 9
REMARK  Name = ../refined-set-2016/4lov/4lov_pocket.pdb
REMARK  122 active torsions:
REMARK  status: ('A' for Active; 'I' for Inactive)
REMARK    1  A    between atoms: _1  and  _5
REMARK    2  A    between atoms: _5  and  _6
REMARK    3  A    between atoms: _5  and  _8
REMARK    4  A    between atoms: _6  and  _7
REMARK    5  A    between atoms: _6  and  _15
REMARK    6  A    between atoms: _8  and  _9
REMARK    7  A    between atoms: _15  and  _17
REMARK    8  A    between atoms: _17  and  _18
REMARK    9  A    between atoms: _22  and  _23
REMARK   10  A    between atoms: _28  and  _30
REMARK   11  A    between atoms: _30  and  _31
REMARK   12  A    between atoms: _30  and  _33
REMARK   13  A    between atoms: _33  and  _34
REMARK   14  A    between atoms: _37  and  _39
REMARK   15  A    between atoms: _39  and  _40
REMARK   16  A    between atoms: _42  and  _44
REMARK   17  A    between atoms: _44  and  _45
REMARK   18  A    between atoms: _47  and  _49
REMARK   19  A    between atoms: _49  and  _50
REMARK   20  A    between atoms: _49  and  _52
REMARK   21  A    between atoms: _52  and  _53
REMARK   22  A    between atoms: _58  and  _60
REMARK   23  A    between atoms: _60  and  _61
REMARK   24  A    between atoms: _60  and  _63
REMARK   25  A    between atoms: _63  and  _64
REMARK   26  A    between atoms: _69  and  _71
REMARK   27  A    between atoms: _71  and  _72
REMARK   28  A    between atoms: _71  and  _74
REMARK   29  A    between atoms: _74  and  _75
REMARK   30  A    between atoms: _78  and  _80
REMARK   31  A    between atoms: _80  and  _81
REMARK   32  A    between atoms: _80  and  _83
REMARK   33  A    between atoms: _83  and  _84
REMARK   34  A    between atoms: _89  and  _90
REMARK   35  A    between atoms: _93  and  _94
REMARK   36  A    between atoms: _99  and  _101
REMARK   37  A    between atoms: _101  and  _102
REMARK   38  A    between atoms: _101  and  _104
REMARK   39  A    between atoms: _104  and  _105
REMARK   40  A    between atoms: _105  and  _106
REMARK   41  A    between atoms: _109  and  _111
REMARK   42  A    between atoms: _111  and  _112
REMARK   43  A    between atoms: _111  and  _114
REMARK   44  A    between atoms: _114  and  _115
REMARK   45  A    between atoms: _118  and  _120
REMARK   46  A    between atoms: _120  and  _121
REMARK   47  A    between atoms: _120  and  _123
REMARK   48  A    between atoms: _123  and  _124
REMARK   49  A    between atoms: _127  and  _129
REMARK   50  A    between atoms: _129  and  _130
REMARK   51  A    between atoms: _129  and  _132
REMARK   52  A    between atoms: _132  and  _133
REMARK   53  A    between atoms: _136  and  _138
REMARK   54  A    between atoms: _138  and  _139
REMARK   55  A    between atoms: _138  and  _141
REMARK   56  A    between atoms: _141  and  _142
REMARK   57  A    between atoms: _145  and  _147
REMARK   58  A    between atoms: _147  and  _148
REMARK   59  A    between atoms: _147  and  _150
REMARK   60  A    between atoms: _150  and  _151
REMARK   61  A    between atoms: _156  and  _157
REMARK   62  A    between atoms: _159  and  _161
REMARK   63  A    between atoms: _161  and  _162
REMARK   64  A    between atoms: _161  and  _164
REMARK   65  A    between atoms: _164  and  _165
REMARK   66  A    between atoms: _170  and  _171
REMARK   67  A    between atoms: _173  and  _175
REMARK   68  A    between atoms: _175  and  _176
REMARK   69  A    between atoms: _175  and  _178
REMARK   70  A    between atoms: _178  and  _179
REMARK   71  A    between atoms: _181  and  _183
REMARK   72  A    between atoms: _183  and  _184
REMARK   73  A    between atoms: _183  and  _186
REMARK   74  A    between atoms: _186  and  _187
REMARK   75  A    between atoms: _187  and  _188
REMARK   76  A    between atoms: _188  and  _189
REMARK   77  A    between atoms: _198  and  _200
REMARK   78  A    between atoms: _200  and  _201
REMARK   79  A    between atoms: _200  and  _203
REMARK   80  A    between atoms: _203  and  _204
REMARK   81  A    between atoms: _204  and  _205
REMARK   82  A    between atoms: _210  and  _212
REMARK   83  A    between atoms: _212  and  _213
REMARK   84  A    between atoms: _212  and  _215
REMARK   85  A    between atoms: _215  and  _216
REMARK   86  A    between atoms: _219  and  _221
REMARK   87  A    between atoms: _221  and  _222
REMARK   88  A    between atoms: _221  and  _224
REMARK   89  A    between atoms: _224  and  _225
REMARK   90  A    between atoms: _230  and  _232
REMARK   91  A    between atoms: _232  and  _233
REMARK   92  A    between atoms: _232  and  _235
REMARK   93  A    between atoms: _235  and  _236
REMARK   94  A    between atoms: _241  and  _243
REMARK   95  A    between atoms: _243  and  _244
REMARK   96  A    between atoms: _243  and  _246
REMARK   97  A    between atoms: _246  and  _247
REMARK   98  A    between atoms: _252  and  _253
REMARK   99  A    between atoms: _255  and  _257
REMARK  100  A    between atoms: _257  and  _258
REMARK  101  A    between atoms: _257  and  _260
REMARK  102  A    between atoms: _260  and  _261
REMARK  103  A    between atoms: _266  and  _268
REMARK  104  A    between atoms: _268  and  _269
REMARK  105  A    between atoms: _268  and  _271
REMARK  106  A    between atoms: _271  and  _272
REMARK  107  A    between atoms: _274  and  _276
REMARK  108  A    between atoms: _276  and  _277
REMARK  109  A    between atoms: _276  and  _279
REMARK  110  A    between atoms: _279  and  _280
REMARK  111  A    between atoms: _283  and  _285
REMARK  112  A    between atoms: _285  and  _286
REMARK  113  A    between atoms: _285  and  _288
REMARK  114  A    between atoms: _288  and  _289
REMARK  115  A    between atoms: _292  and  _294
REMARK  116  A    between atoms: _294  and  _295
REMARK  117  A    between atoms: _294  and  _297
REMARK  118  A    between atoms: _297  and  _298
REMARK  119  A    between atoms: _304  and  _306
REMARK  120  A    between atoms: _306  and  _307
REMARK  121  A    between atoms: _306  and  _309
REMARK  122  A    between atoms: _309  and  _310
REMARK                            x       y       z     vdW  Elec       q    Type
REMARK                         _______ _______ _______ _____ _____    ______ ____
ROOT
ATOM      1  CA  GLU A   6       1.264  -9.942 -39.425  0.00  0.00    +0.149 C 
ENDROOT
BRANCH   1   2
ATOM      2  C   GLU A   6       2.121 -11.115 -39.938  0.00  0.00    +0.241 C 
ATOM      3  N   THR A   7       3.439 -11.062 -39.684  0.00  0.00    -0.295 N 
ATOM      4  H   THR A   7       3.803 -10.288 -39.093  0.00  0.00    +0.150 HD
ATOM      5  O   GLU A   6       1.597 -12.041 -40.555  0.00  0.00    -0.273 OA
BRANCH   3   6
ATOM      6  CA  THR A   7       4.377 -12.046 -40.204  0.00  0.00    +0.176 C 
BRANCH   6   7
ATOM      7  C   THR A   7       5.291 -12.636 -39.128  0.00  0.00    +0.243 C 
ATOM      8  N   ILE A   8       5.635 -11.839 -38.095  0.00  0.00    -0.297 N 
ATOM      9  H   ILE A   8       5.202 -10.897 -38.016  0.00  0.00    +0.150 HD
ATOM     10  O   THR A   7       5.721 -13.790 -39.273  0.00  0.00    -0.273 OA
BRANCH   8  11
ATOM     11  CA  ILE A   8       6.603 -12.266 -37.082  0.00  0.00    +0.149 C 
BRANCH  11  12
ATOM     12  C   ILE A   8       5.996 -12.524 -35.720  0.00  0.00    +0.241 C 
ATOM     13  N   THR A   9       6.471 -13.581 -35.052  0.00  0.00    -0.295 N 
ATOM     14  H   THR A   9       7.093 -14.248 -35.552  0.00  0.00    +0.150 HD
ATOM     15  O   ILE A   8       5.167 -11.746 -35.262  0.00  0.00    -0.273 OA
BRANCH  13  16
ATOM     16  CA  THR A   9       6.153 -13.837 -33.651  0.00  0.00    +0.176 C 
BRANCH  16  17
ATOM     17  C   THR A   9       7.396 -13.444 -32.863  0.00  0.00    +0.243 C 
ATOM     18  N   ASP A  10       7.250 -12.575 -31.860  0.00  0.00    -0.296 N 
ATOM     19  H   ASP A  10       6.316 -12.147 -31.697  0.00  0.00    +0.150 HD
ATOM     20  O   THR A   9       8.485 -13.922 -33.188  0.00  0.00    -0.273 OA
BRANCH  18  21
ATOM     21  CA  ASP A  10       8.374 -12.202 -30.973  0.00  0.00    +0.160 C 
BRANCH  21  22
ATOM     22  C   ASP A  10       8.357 -13.044 -29.693  0.00  0.00    +0.241 C 
ATOM     23  O   ASP A  10       7.275 -13.323 -29.148  0.00  0.00    -0.273 OA
ATOM     24  N   TYR A  11       9.554 -13.455 -29.227  0.00  0.00    -0.298 N 
ATOM     25  H   TYR A  11      10.408 -13.175 -29.750  0.00  0.00    +0.150 HD
BRANCH  24  26
ATOM     26  CA  TYR A  11       9.717 -14.281 -28.015  0.00  0.00    +0.141 C 
BRANCH  26  27
ATOM     27  C   TYR A  11      10.492 -13.496 -27.012  0.00  0.00    +0.227 C 
ATOM     28  O   TYR A  11      11.544 -12.963 -27.350  0.00  0.00    -0.286 OA
ENDBRANCH  26  27
BRANCH  26  29
ATOM     29  CB  TYR A  11      10.479 -15.572 -28.320  0.00  0.00    +0.054 C 
BRANCH  29  30
ATOM     30  CG  TYR A  11       9.845 -16.407 -29.404  0.00  0.00    -0.020 A 
ATOM     31  CD2 TYR A  11       8.563 -16.938 -29.247  0.00  0.00    -0.001 A 
ATOM     32  CE2 TYR A  11       7.981 -17.726 -30.240  0.00  0.00    +0.036 A 
ATOM     33  CZ  TYR A  11       8.698 -18.014 -31.389  0.00  0.00    +0.134 A 
ATOM     34  CE1 TYR A  11       9.977 -17.512 -31.554  0.00  0.00    +0.036 A 
ATOM     35  CD1 TYR A  11      10.541 -16.714 -30.564  0.00  0.00    -0.001 A 
BRANCH  33  36
ATOM     36  OH  TYR A  11       8.160 -18.794 -32.385  0.00  0.00    -0.506 OA
ATOM     37  HH  TYR A  11       7.247 -19.076 -32.125  0.00  0.00    +0.292 HD
ENDBRANCH  33  36
ENDBRANCH  29  30
ENDBRANCH  26  29
ENDBRANCH  24  26
ENDBRANCH  21  22
BRANCH  21  38
ATOM     38  CB  ASP A  10       8.279 -10.723 -30.610  0.00  0.00    +0.143 C 
BRANCH  38  39
ATOM     39  CG  ASP A  10       8.681  -9.805 -31.742  0.00  0.00    +0.367 C 
ATOM     40  OD2 ASP A  10       8.093  -8.722 -31.860  0.00  0.00    -0.246 OA
ATOM     41  OD1 ASP A  10       9.553 -10.195 -32.543  0.00  0.00    -0.246 OA
ENDBRANCH  38  39
ENDBRANCH  21  38
ENDBRANCH  18  21
ENDBRANCH  16  17
BRANCH  16  42
ATOM     42  CB  THR A   9       5.820 -15.320 -33.416  0.00  0.00    +0.137 C 
ATOM     43  CG2 THR A   9       5.508 -15.609 -31.956  0.00  0.00    +0.034 C 
BRANCH  42  44
ATOM     44  OG1 THR A   9       4.688 -15.653 -34.221  0.00  0.00    -0.382 OA
ATOM     45  HG1 THR A   9       4.456 -16.606 -34.084  0.00  0.00    +0.210 HD
ENDBRANCH  42  44
ENDBRANCH  16  42
ENDBRANCH  13  16
ENDBRANCH  11  12
BRANCH  11  46
ATOM     46  CB  ILE A   8       7.739 -11.207 -36.980  0.00  0.00    +0.027 C 
ATOM     47  CG2 ILE A   8       8.800 -11.618 -35.917  0.00  0.00    +0.002 C 
BRANCH  46  48
ATOM     48  CG1 ILE A   8       8.400 -10.958 -38.368  0.00  0.00    +0.002 C 
ATOM     49  CD1 ILE A   8       9.500  -9.894 -38.378  0.00  0.00    +0.000 C 
ENDBRANCH  46  48
ENDBRANCH  11  46
ENDBRANCH   8  11
ENDBRANCH   6   7
BRANCH   6  50
ATOM     50  CB  THR A   7       5.192 -11.351 -41.322  0.00  0.00    +0.137 C 
ATOM     51  CG2 THR A   7       6.401 -12.148 -41.811  0.00  0.00    +0.034 C 
BRANCH  50  52
ATOM     52  OG1 THR A   7       4.321 -11.059 -42.427  0.00  0.00    -0.382 OA
ATOM     53  HG1 THR A   7       4.838 -10.614 -43.145  0.00  0.00    +0.210 HD
ENDBRANCH  50  52
ENDBRANCH   6  50
ENDBRANCH   3   6
ENDBRANCH   1   2
BRANCH   1  56
ATOM     54  C   PRO A   5       2.066 -10.003 -37.090  0.00  0.00    +0.241 C 
ATOM     55  O   PRO A   5       1.711 -11.183 -36.914  0.00  0.00    -0.273 OA
ATOM     56  N   GLU A   6       1.891  -9.334 -38.249  0.00  0.00    -0.297 N 
ATOM     57  H   GLU A   6       2.214  -8.347 -38.310  0.00  0.00    +0.150 HD
BRANCH  54  63
ATOM     58  C   TYR A   4       4.536  -8.082 -37.209  0.00  0.00    +0.244 C 
ATOM     59  N   PRO A   5       3.443  -8.016 -36.416  0.00  0.00    -0.272 N 
ATOM     60  CD  PRO A   5       2.808  -6.825 -35.799  0.00  0.00    +0.094 C 
ATOM     61  CG  PRO A   5       1.453  -7.347 -35.369  0.00  0.00    +0.024 C 
ATOM     62  CB  PRO A   5       1.789  -8.745 -34.905  0.00  0.00    +0.031 C 
ATOM     63  CA  PRO A   5       2.774  -9.249 -35.967  0.00  0.00    +0.152 C 
ATOM     64  O   TYR A   4       4.937  -9.149 -37.689  0.00  0.00    -0.273 OA
BRANCH  58  65
ATOM     65  CA  TYR A   4       5.263  -6.772 -37.524  0.00  0.00    +0.153 C 
BRANCH  65  67
ATOM     66  C   ASP A   3       5.708  -4.749 -36.172  0.00  0.00    +0.241 C 
ATOM     67  N   TYR A   4       5.683  -6.091 -36.273  0.00  0.00    -0.297 N 
ATOM     68  H   TYR A   4       5.965  -6.666 -35.454  0.00  0.00    +0.150 HD
ATOM     69  O   ASP A   3       5.378  -3.991 -37.094  0.00  0.00    -0.273 OA
BRANCH  66  70
ATOM     70  CA  ASP A   3       6.259  -4.153 -34.890  0.00  0.00    +0.160 C 
BRANCH  70  73
ATOM     71  C   ASN A   2       5.384  -5.446 -32.994  0.00  0.00    +0.241 C 
ATOM     72  O   ASN A   2       4.248  -4.993 -33.168  0.00  0.00    -0.273 OA
ATOM     73  N   ASP A   3       6.414  -5.103 -33.780  0.00  0.00    -0.297 N 
ATOM     74  H   ASP A   3       7.349  -5.521 -33.599  0.00  0.00    +0.150 HD
BRANCH  71  75
ATOM     75  CA  ASN A   2       5.685  -6.421 -31.822  0.00  0.00    +0.158 C 
BRANCH  75  78
ATOM     76  C   HIS A   1       5.860  -5.064 -29.751  0.00  0.00    +0.239 C 
ATOM     77  O   HIS A   1       7.075  -4.825 -29.881  0.00  0.00    -0.274 OA
ATOM     78  N   ASN A   2       5.156  -5.798 -30.609  0.00  0.00    -0.297 N 
ATOM     79  H   ASN A   2       4.147  -5.940 -30.400  0.00  0.00    +0.150 HD
BRANCH  76  80
ATOM     80  CA  HIS A   1       5.047  -4.431 -28.641  0.00  0.00    +0.151 C 
BRANCH  80  81
ATOM     81  N   HIS A   1       5.930  -4.073 -27.538  0.00  0.00    -0.238 NA
ATOM     82  H   HIS A   1       6.907  -3.780 -27.744  0.00  0.00    +0.142 HD
ENDBRANCH  80  81
BRANCH  80  83
ATOM     83  CB  HIS A   1       4.264  -3.215 -29.177  0.00  0.00    +0.074 C 
BRANCH  83  84
ATOM     84  CG  HIS A   1       5.105  -2.274 -29.985  0.00  0.00    +0.082 A 
ATOM     85  ND1 HIS A   1       5.875  -1.296 -29.372  0.00  0.00    -0.227 NA
ATOM     86  CE1 HIS A   1       6.515  -0.670 -30.351  0.00  0.00    +0.199 A 
ATOM     87  NE2 HIS A   1       6.222  -1.192 -31.541  0.00  0.00    -0.221 NA
ATOM     88  CD2 HIS A   1       5.306  -2.213 -31.326  0.00  0.00    +0.115 A 
ENDBRANCH  83  84
ENDBRANCH  80  83
ENDBRANCH  76  80
ENDBRANCH  75  78
BRANCH  75  89
ATOM     89  CB  ASN A   2       4.973  -7.768 -31.984  0.00  0.00    +0.114 C 
BRANCH  89  90
ATOM     90  CG  ASN A   2       5.308  -8.579 -33.228  0.00  0.00    +0.222 C 
ATOM     91  ND2 ASN A   2       5.151  -9.903 -33.109  0.00  0.00    -0.329 N 
ATOM     92 HD21 ASN A   2       4.807 -10.308 -32.215  0.00  0.00    +0.145 HD
ATOM     93 HD22 ASN A   2       5.373 -10.527 -33.911  0.00  0.00    +0.145 HD
ATOM     94  OD1 ASN A   2       5.719  -8.055 -34.286  0.00  0.00    -0.275 OA
ENDBRANCH  89  90
ENDBRANCH  75  89
ENDBRANCH  71  75
ENDBRANCH  70  73
BRANCH  70  95
ATOM     95  CB  ASP A   3       7.597  -3.461 -35.199  0.00  0.00    +0.143 C 
BRANCH  95  96
ATOM     96  CG  ASP A   3       7.892  -2.341 -34.228  0.00  0.00    +0.367 C 
ATOM     97  OD2 ASP A   3       8.855  -2.463 -33.465  0.00  0.00    -0.246 OA
ATOM     98  OD1 ASP A   3       7.105  -1.368 -34.183  0.00  0.00    -0.246 OA
ENDBRANCH  95  96
ENDBRANCH  70  95
ENDBRANCH  66  70
ENDBRANCH  65  67
BRANCH  65  99
ATOM     99  CB  TYR A   4       6.528  -6.989 -38.384  0.00  0.00    +0.055 C 
BRANCH  99 100
ATOM    100  CG  TYR A   4       6.354  -7.434 -39.832  0.00  0.00    -0.020 A 
ATOM    101  CD2 TYR A   4       7.381  -8.090 -40.503  0.00  0.00    -0.001 A 
ATOM    102  CE2 TYR A   4       7.273  -8.428 -41.847  0.00  0.00    +0.036 A 
ATOM    103  CZ  TYR A   4       6.116  -8.119 -42.540  0.00  0.00    +0.134 A 
ATOM    104  CE1 TYR A   4       5.066  -7.486 -41.893  0.00  0.00    +0.036 A 
ATOM    105  CD1 TYR A   4       5.198  -7.125 -40.551  0.00  0.00    -0.001 A 
BRANCH 103 106
ATOM    106  OH  TYR A   4       6.030  -8.456 -43.864  0.00  0.00    -0.506 OA
ATOM    107  HH  TYR A   4       6.126  -9.437 -43.961  0.00  0.00    +0.292 HD
ENDBRANCH 103 106
ENDBRANCH  99 100
ENDBRANCH  65  99
ENDBRANCH  58  65
ENDBRANCH  54  63
ENDBRANCH   1  56
BRANCH   1 108
ATOM    108  CB  GLU A   6       1.130  -8.905 -40.560  0.00  0.00    +0.041 C 
BRANCH 108 109
ATOM    109  CG  GLU A   6       0.171  -7.765 -40.265  0.00  0.00    +0.116 C 
BRANCH 109 110
ATOM    110  CD  GLU A   6       0.670  -6.582 -39.450  0.00  0.00    +0.365 C 
ATOM    111  OE2 GLU A   6       1.837  -6.603 -38.995  0.00  0.00    -0.246 OA
ATOM    112  OE1 GLU A   6      -0.097  -5.599 -39.320  0.00  0.00    -0.246 OA
ENDBRANCH 109 110
ENDBRANCH 108 109
ENDBRANCH   1 108
TORSDOF 44
REMARK  Name = ../refined-set-2016/4lov/4lov_pocket.pdb
REMARK  122 active torsions:
REMARK  status: ('A' for Active; 'I' for Inactive)
REMARK    1  A    between atoms: _1  and  _5
REMARK    2  A    between atoms: _5  and  _6
REMARK    3  A    between atoms: _5  and  _8
REMARK    4  A    between atoms: _6  and  _7
REMARK    5  A    between atoms: _6  and  _15
REMARK    6  A    between atoms: _8  and  _9
REMARK    7  A    between atoms: _15  and  _17
REMARK    8  A    between atoms: _17  and  _18
REMARK    9  A    between atoms: _22  and  _23
REMARK   10  A    between atoms: _28  and  _30
REMARK   11  A    between atoms: _30  and  _31
REMARK   12  A    between atoms: _30  and  _33
REMARK   13  A    between atoms: _33  and  _34
REMARK   14  A    between atoms: _37  and  _39
REMARK   15  A    between atoms: _39  and  _40
REMARK   16  A    between atoms: _42  and  _44
REMARK   17  A    between atoms: _44  and  _45
REMARK   18  A    between atoms: _47  and  _49
REMARK   19  A    between atoms: _49  and  _50
REMARK   20  A    between atoms: _49  and  _52
REMARK   21  A    between atoms: _52  and  _53
REMARK   22  A    between atoms: _58  and  _60
REMARK   23  A    between atoms: _60  and  _61
REMARK   24  A    between atoms: _60  and  _63
REMARK   25  A    between atoms: _63  and  _64
REMARK   26  A    between atoms: _69  and  _71
REMARK   27  A    between atoms: _71  and  _72
REMARK   28  A    between atoms: _71  and  _74
REMARK   29  A    between atoms: _74  and  _75
REMARK   30  A    between atoms: _78  and  _80
REMARK   31  A    between atoms: _80  and  _81
REMARK   32  A    between atoms: _80  and  _83
REMARK   33  A    between atoms: _83  and  _84
REMARK   34  A    between atoms: _89  and  _90
REMARK   35  A    between atoms: _93  and  _94
REMARK   36  A    between atoms: _99  and  _101
REMARK   37  A    between atoms: _101  and  _102
REMARK   38  A    between atoms: _101  and  _104
REMARK   39  A    between atoms: _104  and  _105
REMARK   40  A    between atoms: _105  and  _106
REMARK   41  A    between atoms: _109  and  _111
REMARK   42  A    between atoms: _111  and  _112
REMARK   43  A    between atoms: _111  and  _114
REMARK   44  A    between atoms: _114  and  _115
REMARK   45  A    between atoms: _118  and  _120
REMARK   46  A    between atoms: _120  and  _121
REMARK   47  A    between atoms: _120  and  _123
REMARK   48  A    between atoms: _123  and  _124
REMARK   49  A    between atoms: _127  and  _129
REMARK   50  A    between atoms: _129  and  _130
REMARK   51  A    between atoms: _129  and  _132
REMARK   52  A    between atoms: _132  and  _133
REMARK   53  A    between atoms: _136  and  _138
REMARK   54  A    between atoms: _138  and  _139
REMARK   55  A    between atoms: _138  and  _141
REMARK   56  A    between atoms: _141  and  _142
REMARK   57  A    between atoms: _145  and  _147
REMARK   58  A    between atoms: _147  and  _148
REMARK   59  A    between atoms: _147  and  _150
REMARK   60  A    between atoms: _150  and  _151
REMARK   61  A    between atoms: _156  and  _157
REMARK   62  A    between atoms: _159  and  _161
REMARK   63  A    between atoms: _161  and  _162
REMARK   64  A    between atoms: _161  and  _164
REMARK   65  A    between atoms: _164  and  _165
REMARK   66  A    between atoms: _170  and  _171
REMARK   67  A    between atoms: _173  and  _175
REMARK   68  A    between atoms: _175  and  _176
REMARK   69  A    between atoms: _175  and  _178
REMARK   70  A    between atoms: _178  and  _179
REMARK   71  A    between atoms: _181  and  _183
REMARK   72  A    between atoms: _183  and  _184
REMARK   73  A    between atoms: _183  and  _186
REMARK   74  A    between atoms: _186  and  _187
REMARK   75  A    between atoms: _187  and  _188
REMARK   76  A    between atoms: _188  and  _189
REMARK   77  A    between atoms: _198  and  _200
REMARK   78  A    between atoms: _200  and  _201
REMARK   79  A    between atoms: _200  and  _203
REMARK   80  A    between atoms: _203  and  _204
REMARK   81  A    between atoms: _204  and  _205
REMARK   82  A    between atoms: _210  and  _212
REMARK   83  A    between atoms: _212  and  _213
REMARK   84  A    between atoms: _212  and  _215
REMARK   85  A    between atoms: _215  and  _216
REMARK   86  A    between atoms: _219  and  _221
REMARK   87  A    between atoms: _221  and  _222
REMARK   88  A    between atoms: _221  and  _224
REMARK   89  A    between atoms: _224  and  _225
REMARK   90  A    between atoms: _230  and  _232
REMARK   91  A    between atoms: _232  and  _233
REMARK   92  A    between atoms: _232  and  _235
REMARK   93  A    between atoms: _235  and  _236
REMARK   94  A    between atoms: _241  and  _243
REMARK   95  A    between atoms: _243  and  _244
REMARK   96  A    between atoms: _243  and  _246
REMARK   97  A    between atoms: _246  and  _247
REMARK   98  A    between atoms: _252  and  _253
REMARK   99  A    between atoms: _255  and  _257
REMARK  100  A    between atoms: _257  and  _258
REMARK  101  A    between atoms: _257  and  _260
REMARK  102  A    between atoms: _260  and  _261
REMARK  103  A    between atoms: _266  and  _268
REMARK  104  A    between atoms: _268  and  _269
REMARK  105  A    between atoms: _268  and  _271
REMARK  106  A    between atoms: _271  and  _272
REMARK  107  A    between atoms: _274  and  _276
REMARK  108  A    between atoms: _276  and  _277
REMARK  109  A    between atoms: _276  and  _279
REMARK  110  A    between atoms: _279  and  _280
REMARK  111  A    between atoms: _283  and  _285
REMARK  112  A    between atoms: _285  and  _286
REMARK  113  A    between atoms: _285  and  _288
REMARK  114  A    between atoms: _288  and  _289
REMARK  115  A    between atoms: _292  and  _294
REMARK  116  A    between atoms: _294  and  _295
REMARK  117  A    between atoms: _294  and  _297
REMARK  118  A    between atoms: _297  and  _298
REMARK  119  A    between atoms: _304  and  _306
REMARK  120  A    between atoms: _306  and  _307
REMARK  121  A    between atoms: _306  and  _309
REMARK  122  A    between atoms: _309  and  _310
REMARK                            x       y       z     vdW  Elec       q    Type
REMARK                         _______ _______ _______ _____ _____    ______ ____
ROOT
ATOM      1  CG  TYR A   1       5.588  -9.446 -26.439  0.00  0.00    -0.020 A 
ATOM      2  CD2 TYR A   1       6.134 -10.361 -25.539  0.00  0.00    -0.001 A 
ATOM      3  CE2 TYR A   1       6.204 -10.080 -24.175  0.00  0.00    +0.036 A 
ATOM      4  CZ  TYR A   1       5.739  -8.867 -23.701  0.00  0.00    +0.134 A 
ATOM      5  CE1 TYR A   1       5.205  -7.934 -24.573  0.00  0.00    +0.036 A 
ATOM      6  CD1 TYR A   1       5.104  -8.237 -25.933  0.00  0.00    -0.001 A 
ENDROOT
BRANCH   4   7
ATOM      7  OH  TYR A   1       5.812  -8.622 -22.353  0.00  0.00    -0.506 OA
ATOM      8  HH  TYR A   1       4.901  -8.471 -21.996  0.00  0.00    +0.292 HD
ENDBRANCH   4   7
BRANCH   1   9
ATOM      9  CB  TYR A   1       5.459  -9.782 -27.908  0.00  0.00    +0.051 C 
BRANCH   9  10
ATOM     10  CA  TYR A   1       4.385 -10.854 -28.155  0.00  0.00    +0.137 C 
BRANCH  10  11
ATOM     11  N   TYR A   1       4.888 -12.205 -27.895  0.00  0.00    -0.239 NA
ATOM     12  H   TYR A   1       5.724 -12.519 -28.427  0.00  0.00    +0.142 HD
ENDBRANCH  10  11
BRANCH  10  13
ATOM     13  C   TYR A   1       3.952 -10.900 -29.610  0.00  0.00    +0.224 C 
ATOM     14  O   TYR A   1       4.775 -11.149 -30.504  0.00  0.00    -0.287 OA
ENDBRANCH  10  13
ENDBRANCH   9  10
ENDBRANCH   1   9
TORSDOF 5
REMARK  Name = ../refined-set-2016/4lov/4lov_pocket.pdb
REMARK  122 active torsions:
REMARK  status: ('A' for Active; 'I' for Inactive)
REMARK    1  A    between atoms: _1  and  _5
REMARK    2  A    between atoms: _5  and  _6
REMARK    3  A    between atoms: _5  and  _8
REMARK    4  A    between atoms: _6  and  _7
REMARK    5  A    between atoms: _6  and  _15
REMARK    6  A    between atoms: _8  and  _9
REMARK    7  A    between atoms: _15  and  _17
REMARK    8  A    between atoms: _17  and  _18
REMARK    9  A    between atoms: _22  and  _23
REMARK   10  A    between atoms: _28  and  _30
REMARK   11  A    between atoms: _30  and  _31
REMARK   12  A    between atoms: _30  and  _33
REMARK   13  A    between atoms: _33  and  _34
REMARK   14  A    between atoms: _37  and  _39
REMARK   15  A    between atoms: _39  and  _40
REMARK   16  A    between atoms: _42  and  _44
REMARK   17  A    between atoms: _44  and  _45
REMARK   18  A    between atoms: _47  and  _49
REMARK   19  A    between atoms: _49  and  _50
REMARK   20  A    between atoms: _49  and  _52
REMARK   21  A    between atoms: _52  and  _53
REMARK   22  A    between atoms: _58  and  _60
REMARK   23  A    between atoms: _60  and  _61
REMARK   24  A    between atoms: _60  and  _63
REMARK   25  A    between atoms: _63  and  _64
REMARK   26  A    between atoms: _69  and  _71
REMARK   27  A    between atoms: _71  and  _72
REMARK   28  A    between atoms: _71  and  _74
REMARK   29  A    between atoms: _74  and  _75
REMARK   30  A    between atoms: _78  and  _80
REMARK   31  A    between atoms: _80  and  _81
REMARK   32  A    between atoms: _80  and  _83
REMARK   33  A    between atoms: _83  and  _84
REMARK   34  A    between atoms: _89  and  _90
REMARK   35  A    between atoms: _93  and  _94
REMARK   36  A    between atoms: _99  and  _101
REMARK   37  A    between atoms: _101  and  _102
REMARK   38  A    between atoms: _101  and  _104
REMARK   39  A    between atoms: _104  and  _105
REMARK   40  A    between atoms: _105  and  _106
REMARK   41  A    between atoms: _109  and  _111
REMARK   42  A    between atoms: _111  and  _112
REMARK   43  A    between atoms: _111  and  _114
REMARK   44  A    between atoms: _114  and  _115
REMARK   45  A    between atoms: _118  and  _120
REMARK   46  A    between atoms: _120  and  _121
REMARK   47  A    between atoms: _120  and  _123
REMARK   48  A    between atoms: _123  and  _124
REMARK   49  A    between atoms: _127  and  _129
REMARK   50  A    between atoms: _129  and  _130
REMARK   51  A    between atoms: _129  and  _132
REMARK   52  A    between atoms: _132  and  _133
REMARK   53  A    between atoms: _136  and  _138
REMARK   54  A    between atoms: _138  and  _139
REMARK   55  A    between atoms: _138  and  _141
REMARK   56  A    between atoms: _141  and  _142
REMARK   57  A    between atoms: _145  and  _147
REMARK   58  A    between atoms: _147  and  _148
REMARK   59  A    between atoms: _147  and  _150
REMARK   60  A    between atoms: _150  and  _151
REMARK   61  A    between atoms: _156  and  _157
REMARK   62  A    between atoms: _159  and  _161
REMARK   63  A    between atoms: _161  and  _162
REMARK   64  A    between atoms: _161  and  _164
REMARK   65  A    between atoms: _164  and  _165
REMARK   66  A    between atoms: _170  and  _171
REMARK   67  A    between atoms: _173  and  _175
REMARK   68  A    between atoms: _175  and  _176
REMARK   69  A    between atoms: _175  and  _178
REMARK   70  A    between atoms: _178  and  _179
REMARK   71  A    between atoms: _181  and  _183
REMARK   72  A    between atoms: _183  and  _184
REMARK   73  A    between atoms: _183  and  _186
REMARK   74  A    between atoms: _186  and  _187
REMARK   75  A    between atoms: _187  and  _188
REMARK   76  A    between atoms: _188  and  _189
REMARK   77  A    between atoms: _198  and  _200
REMARK   78  A    between atoms: _200  and  _201
REMARK   79  A    between atoms: _200  and  _203
REMARK   80  A    between atoms: _203  and  _204
REMARK   81  A    between atoms: _204  and  _205
REMARK   82  A    between atoms: _210  and  _212
REMARK   83  A    between atoms: _212  and  _213
REMARK   84  A    between atoms: _212  and  _215
REMARK   85  A    between atoms: _215  and  _216
REMARK   86  A    between atoms: _219  and  _221
REMARK   87  A    between atoms: _221  and  _222
REMARK   88  A    between atoms: _221  and  _224
REMARK   89  A    between atoms: _224  and  _225
REMARK   90  A    between atoms: _230  and  _232
REMARK   91  A    between atoms: _232  and  _233
REMARK   92  A    between atoms: _232  and  _235
REMARK   93  A    between atoms: _235  and  _236
REMARK   94  A    between atoms: _241  and  _243
REMARK   95  A    between atoms: _243  and  _244
REMARK   96  A    between atoms: _243  and  _246
REMARK   97  A    between atoms: _246  and  _247
REMARK   98  A    between atoms: _252  and  _253
REMARK   99  A    between atoms: _255  and  _257
REMARK  100  A    between atoms: _257  and  _258
REMARK  101  A    between atoms: _257  and  _260
REMARK  102  A    between atoms: _260  and  _261
REMARK  103  A    between atoms: _266  and  _268
REMARK  104  A    between atoms: _268  and  _269
REMARK  105  A    between atoms: _268  and  _271
REMARK  106  A    between atoms: _271  and  _272
REMARK  107  A    between atoms: _274  and  _276
REMARK  108  A    between atoms: _276  and  _277
REMARK  109  A    between atoms: _276  and  _279
REMARK  110  A    between atoms: _279  and  _280
REMARK  111  A    between atoms: _283  and  _285
REMARK  112  A    between atoms: _285  and  _286
REMARK  113  A    between atoms: _285  and  _288
REMARK  114  A    between atoms: _288  and  _289
REMARK  115  A    between atoms: _292  and  _294
REMARK  116  A    between atoms: _294  and  _295
REMARK  117  A    between atoms: _294  and  _297
REMARK  118  A    between atoms: _297  and  _298
REMARK  119  A    between atoms: _304  and  _306
REMARK  120  A    between atoms: _306  and  _307
REMARK  121  A    between atoms: _306  and  _309
REMARK  122  A    between atoms: _309  and  _310
REMARK                            x       y       z     vdW  Elec       q    Type
REMARK                         _______ _______ _______ _____ _____    ______ ____
ROOT
ATOM      1  CA  ARG A   2       1.371  -4.005 -32.178  0.00  0.00    +0.137 C 
ENDROOT
BRANCH   1   4
ATOM      2  C   SER A   1       1.252  -6.274 -31.190  0.00  0.00    +0.241 C 
ATOM      3  O   SER A   1       2.277  -6.152 -30.503  0.00  0.00    -0.274 OA
ATOM      4  N   ARG A   2       0.777  -5.321 -32.025  0.00  0.00    -0.298 N 
ATOM      5  H   ARG A   2      -0.065  -5.545 -32.592  0.00  0.00    +0.150 HD
BRANCH   2   6
ATOM      6  CA  SER A   1       0.438  -7.533 -31.120  0.00  0.00    +0.174 C 
BRANCH   6   7
ATOM      7  N   SER A   1       1.287  -8.689 -30.879  0.00  0.00    -0.236 NA
ATOM      8  H   SER A   1       2.092  -8.599 -30.227  0.00  0.00    +0.142 HD
ENDBRANCH   6   7
BRANCH   6   9
ATOM      9  CB  SER A   1      -0.619  -7.424 -30.016  0.00  0.00    +0.163 C 
BRANCH   9  10
ATOM     10  OG  SER A   1      -1.459  -6.297 -30.219  0.00  0.00    -0.380 OA
ATOM     11  H   SER A   1      -1.920  -6.383 -31.091  0.00  0.00    +0.211 HD
ENDBRANCH   9  10
ENDBRANCH   6   9
ENDBRANCH   2   6
ENDBRANCH   1   4
BRANCH   1  12
ATOM     12  C   ARG A   2       0.938  -3.111 -31.004  0.00  0.00    +0.227 C 
ATOM     13  O   ARG A   2       1.575  -2.096 -30.743  0.00  0.00    -0.286 OA
ENDBRANCH   1  12
BRANCH   1  14
ATOM     14  CB  ARG A   2       0.978  -3.425 -33.559  0.00  0.00    +0.031 C 
BRANCH  14  15
ATOM     15  CG  ARG A   2       1.659  -2.117 -33.925  0.00  0.00    +0.045 C 
BRANCH  15  16
ATOM     16  CD  ARG A   2       1.396  -1.806 -35.387  0.00  0.00    +0.174 C 
BRANCH  16  17
ATOM     17  NE  ARG A   2       2.270  -2.548 -36.301  0.00  0.00    -0.265 N 
ATOM     18  HE  ARG A   2       3.281  -2.305 -36.317  0.00  0.00    +0.259 HD
ATOM     19  CZ  ARG A   2       1.844  -3.513 -37.110  0.00  0.00    +0.342 C 
ATOM     20  NH2 ARG A   2       0.575  -3.924 -37.058  0.00  0.00    -0.292 N 
ATOM     21 HH21 ARG A   2      -0.085  -3.489 -36.382  0.00  0.00    +0.255 HD
ATOM     22 HH22 ARG A   2       0.247  -4.679 -37.693  0.00  0.00    +0.255 HD
ATOM     23  NH1 ARG A   2       2.683  -4.094 -37.958  0.00  0.00    -0.292 N 
ATOM     24 HH11 ARG A   2       3.678  -3.795 -37.992  0.00  0.00    +0.255 HD
ATOM     25 HH12 ARG A   2       2.345  -4.849 -38.589  0.00  0.00    +0.255 HD
ENDBRANCH  16  17
ENDBRANCH  15  16
ENDBRANCH  14  15
ENDBRANCH   1  14
TORSDOF 10
REMARK  Name = ../refined-set-2016/4lov/4lov_pocket.pdb
REMARK  122 active torsions:
REMARK  status: ('A' for Active; 'I' for Inactive)
REMARK    1  A    between atoms: _1  and  _5
REMARK    2  A    between atoms: _5  and  _6
REMARK    3  A    between atoms: _5  and  _8
REMARK    4  A    between atoms: _6  and  _7
REMARK    5  A    between atoms: _6  and  _15
REMARK    6  A    between atoms: _8  and  _9
REMARK    7  A    between atoms: _15  and  _17
REMARK    8  A    between atoms: _17  and  _18
REMARK    9  A    between atoms: _22  and  _23
REMARK   10  A    between atoms: _28  and  _30
REMARK   11  A    between atoms: _30  and  _31
REMARK   12  A    between atoms: _30  and  _33
REMARK   13  A    between atoms: _33  and  _34
REMARK   14  A    between atoms: _37  and  _39
REMARK   15  A    between atoms: _39  and  _40
REMARK   16  A    between atoms: _42  and  _44
REMARK   17  A    between atoms: _44  and  _45
REMARK   18  A    between atoms: _47  and  _49
REMARK   19  A    between atoms: _49  and  _50
REMARK   20  A    between atoms: _49  and  _52
REMARK   21  A    between atoms: _52  and  _53
REMARK   22  A    between atoms: _58  and  _60
REMARK   23  A    between atoms: _60  and  _61
REMARK   24  A    between atoms: _60  and  _63
REMARK   25  A    between atoms: _63  and  _64
REMARK   26  A    between atoms: _69  and  _71
REMARK   27  A    between atoms: _71  and  _72
REMARK   28  A    between atoms: _71  and  _74
REMARK   29  A    between atoms: _74  and  _75
REMARK   30  A    between atoms: _78  and  _80
REMARK   31  A    between atoms: _80  and  _81
REMARK   32  A    between atoms: _80  and  _83
REMARK   33  A    between atoms: _83  and  _84
REMARK   34  A    between atoms: _89  and  _90
REMARK   35  A    between atoms: _93  and  _94
REMARK   36  A    between atoms: _99  and  _101
REMARK   37  A    between atoms: _101  and  _102
REMARK   38  A    between atoms: _101  and  _104
REMARK   39  A    between atoms: _104  and  _105
REMARK   40  A    between atoms: _105  and  _106
REMARK   41  A    between atoms: _109  and  _111
REMARK   42  A    between atoms: _111  and  _112
REMARK   43  A    between atoms: _111  and  _114
REMARK   44  A    between atoms: _114  and  _115
REMARK   45  A    between atoms: _118  and  _120
REMARK   46  A    between atoms: _120  and  _121
REMARK   47  A    between atoms: _120  and  _123
REMARK   48  A    between atoms: _123  and  _124
REMARK   49  A    between atoms: _127  and  _129
REMARK   50  A    between atoms: _129  and  _130
REMARK   51  A    between atoms: _129  and  _132
REMARK   52  A    between atoms: _132  and  _133
REMARK   53  A    between atoms: _136  and  _138
REMARK   54  A    between atoms: _138  and  _139
REMARK   55  A    between atoms: _138  and  _141
REMARK   56  A    between atoms: _141  and  _142
REMARK   57  A    between atoms: _145  and  _147
REMARK   58  A    between atoms: _147  and  _148
REMARK   59  A    between atoms: _147  and  _150
REMARK   60  A    between atoms: _150  and  _151
REMARK   61  A    between atoms: _156  and  _157
REMARK   62  A    between atoms: _159  and  _161
REMARK   63  A    between atoms: _161  and  _162
REMARK   64  A    between atoms: _161  and  _164
REMARK   65  A    between atoms: _164  and  _165
REMARK   66  A    between atoms: _170  and  _171
REMARK   67  A    between atoms: _173  and  _175
REMARK   68  A    between atoms: _175  and  _176
REMARK   69  A    between atoms: _175  and  _178
REMARK   70  A    between atoms: _178  and  _179
REMARK   71  A    between atoms: _181  and  _183
REMARK   72  A    between atoms: _183  and  _184
REMARK   73  A    between atoms: _183  and  _186
REMARK   74  A    between atoms: _186  and  _187
REMARK   75  A    between atoms: _187  and  _188
REMARK   76  A    between atoms: _188  and  _189
REMARK   77  A    between atoms: _198  and  _200
REMARK   78  A    between atoms: _200  and  _201
REMARK   79  A    between atoms: _200  and  _203
REMARK   80  A    between atoms: _203  and  _204
REMARK   81  A    between atoms: _204  and  _205
REMARK   82  A    between atoms: _210  and  _212
REMARK   83  A    between atoms: _212  and  _213
REMARK   84  A    between atoms: _212  and  _215
REMARK   85  A    between atoms: _215  and  _216
REMARK   86  A    between atoms: _219  and  _221
REMARK   87  A    between atoms: _221  and  _222
REMARK   88  A    between atoms: _221  and  _224
REMARK   89  A    between atoms: _224  and  _225
REMARK   90  A    between atoms: _230  and  _232
REMARK   91  A    between atoms: _232  and  _233
REMARK   92  A    between atoms: _232  and  _235
REMARK   93  A    between atoms: _235  and  _236
REMARK   94  A    between atoms: _241  and  _243
REMARK   95  A    between atoms: _243  and  _244
REMARK   96  A    between atoms: _243  and  _246
REMARK   97  A    between atoms: _246  and  _247
REMARK   98  A    between atoms: _252  and  _253
REMARK   99  A    between atoms: _255  and  _257
REMARK  100  A    between atoms: _257  and  _258
REMARK  101  A    between atoms: _257  and  _260
REMARK  102  A    between atoms: _260  and  _261
REMARK  103  A    between atoms: _266  and  _268
REMARK  104  A    between atoms: _268  and  _269
REMARK  105  A    between atoms: _268  and  _271
REMARK  106  A    between atoms: _271  and  _272
REMARK  107  A    between atoms: _274  and  _276
REMARK  108  A    between atoms: _276  and  _277
REMARK  109  A    between atoms: _276  and  _279
REMARK  110  A    between atoms: _279  and  _280
REMARK  111  A    between atoms: _283  and  _285
REMARK  112  A    between atoms: _285  and  _286
REMARK  113  A    between atoms: _285  and  _288
REMARK  114  A    between atoms: _288  and  _289
REMARK  115  A    between atoms: _292  and  _294
REMARK  116  A    between atoms: _294  and  _295
REMARK  117  A    between atoms: _294  and  _297
REMARK  118  A    between atoms: _297  and  _298
REMARK  119  A    between atoms: _304  and  _306
REMARK  120  A    between atoms: _306  and  _307
REMARK  121  A    between atoms: _306  and  _309
REMARK  122  A    between atoms: _309  and  _310
REMARK                            x       y       z     vdW  Elec       q    Type
REMARK                         _______ _______ _______ _____ _____    ______ ____
ROOT
ATOM      1  CA  TYR A   5      11.893 -14.686 -38.511  0.00  0.00    +0.153 C 
ENDROOT
BRANCH   1   3
ATOM      2  C   ASN A   4      10.944 -16.404 -37.027  0.00  0.00    +0.241 C 
ATOM      3  N   TYR A   5      11.671 -15.281 -37.192  0.00  0.00    -0.297 N 
ATOM      4  H   TYR A   5      12.087 -14.823 -36.356  0.00  0.00    +0.150 HD
ATOM      5  O   ASN A   4      10.481 -17.054 -37.974  0.00  0.00    -0.273 OA
BRANCH   2   6
ATOM      6  CA  ASN A   4      10.662 -16.839 -35.579  0.00  0.00    +0.158 C 
BRANCH   6   9
ATOM      7  C   ASN A   3      11.762 -15.431 -33.855  0.00  0.00    +0.241 C 
ATOM      8  O   ASN A   3      12.696 -16.230 -33.669  0.00  0.00    -0.273 OA
ATOM      9  N   ASN A   4      10.748 -15.649 -34.724  0.00  0.00    -0.297 N 
ATOM     10  H   ASN A   4       9.992 -14.938 -34.789  0.00  0.00    +0.150 HD
BRANCH   7  11
ATOM     11  CA  ASN A   3      11.714 -14.126 -33.053  0.00  0.00    +0.158 C 
BRANCH  11  14
ATOM     12  C   THR A   2      12.885 -13.276 -31.118  0.00  0.00    +0.243 C 
ATOM     13  O   THR A   2      11.861 -12.689 -30.737  0.00  0.00    -0.273 OA
ATOM     14  N   ASN A   3      12.918 -13.992 -32.238  0.00  0.00    -0.297 N 
ATOM     15  H   ASN A   3      13.801 -14.456 -32.533  0.00  0.00    +0.150 HD
BRANCH  12  16
ATOM     16  CA  THR A   2      14.179 -13.160 -30.306  0.00  0.00    +0.176 C 
BRANCH  16  18
ATOM     17  C   GLN A   1      14.563 -11.423 -28.576  0.00  0.00    +0.238 C 
ATOM     18  N   THR A   2      13.857 -12.454 -29.070  0.00  0.00    -0.295 N 
ATOM     19  H   THR A   2      13.024 -12.771 -28.535  0.00  0.00    +0.150 HD
ATOM     20  O   GLN A   1      15.595 -10.983 -29.107  0.00  0.00    -0.274 OA
BRANCH  17  21
ATOM     21  CA  GLN A   1      13.955 -10.737 -27.360  0.00  0.00    +0.145 C 
BRANCH  21  22
ATOM     22  N   GLN A   1      14.918 -10.591 -26.273  0.00  0.00    -0.238 NA
ATOM     23  H   GLN A   1      15.764 -10.007 -26.432  0.00  0.00    +0.142 HD
ENDBRANCH  21  22
BRANCH  21  24
ATOM     24  CB  GLN A   1      13.380  -9.362 -27.760  0.00  0.00    +0.036 C 
BRANCH  24  25
ATOM     25  CG  GLN A   1      12.355  -9.406 -28.940  0.00  0.00    +0.087 C 
BRANCH  25  26
ATOM     26  CD  GLN A   1      12.975  -8.837 -30.211  0.00  0.00    +0.219 C 
ATOM     27  OE1 GLN A   1      13.729  -7.856 -30.170  0.00  0.00    -0.275 OA
ATOM     28  NE2 GLN A   1      12.628  -9.393 -31.373  0.00  0.00    -0.329 N 
ATOM     29 HE21 GLN A   1      11.993 -10.217 -31.386  0.00  0.00    +0.145 HD
ATOM     30 HE22 GLN A   1      12.992  -9.003 -32.266  0.00  0.00    +0.145 HD
ENDBRANCH  25  26
ENDBRANCH  24  25
ENDBRANCH  21  24
ENDBRANCH  17  21
ENDBRANCH  16  18
BRANCH  16  31
ATOM     31  CB  THR A   2      14.812 -14.541 -30.014  0.00  0.00    +0.137 C 
ATOM     32  CG2 THR A   2      16.205 -14.425 -29.354  0.00  0.00    +0.034 C 
BRANCH  31  33
ATOM     33  OG1 THR A   2      13.916 -15.283 -29.170  0.00  0.00    -0.382 OA
ATOM     34  HG1 THR A   2      14.308 -16.171 -28.974  0.00  0.00    +0.210 HD
ENDBRANCH  31  33
ENDBRANCH  16  31
ENDBRANCH  12  16
ENDBRANCH  11  14
BRANCH  11  35
ATOM     35  CB  ASN A   3      11.509 -12.861 -33.931  0.00  0.00    +0.114 C 
BRANCH  35  36
ATOM     36  CG  ASN A   3      12.634 -12.663 -34.939  0.00  0.00    +0.222 C 
ATOM     37  ND2 ASN A   3      13.074 -11.404 -35.144  0.00  0.00    -0.329 N 
ATOM     38 HD21 ASN A   3      12.597 -10.605 -34.680  0.00  0.00    +0.145 HD
ATOM     39 HD22 ASN A   3      13.890 -11.233 -35.766  0.00  0.00    +0.145 HD
ATOM     40  OD1 ASN A   3      13.171 -13.645 -35.471  0.00  0.00    -0.275 OA
ENDBRANCH  35  36
ENDBRANCH  11  35
ENDBRANCH   7  11
ENDBRANCH   6   9
BRANCH   6  41
ATOM     41  CB  ASN A   4       9.250 -17.463 -35.451  0.00  0.00    +0.114 C 
BRANCH  41  42
ATOM     42  CG  ASN A   4       8.139 -16.603 -36.026  0.00  0.00    +0.222 C 
ATOM     43  OD1 ASN A   4       8.284 -15.380 -36.246  0.00  0.00    -0.275 OA
ATOM     44  ND2 ASN A   4       6.991 -17.235 -36.272  0.00  0.00    -0.329 N 
ATOM     45 HD21 ASN A   4       6.906 -18.253 -36.077  0.00  0.00    +0.145 HD
ATOM     46 HD22 ASN A   4       6.181 -16.710 -36.659  0.00  0.00    +0.145 HD
ENDBRANCH  41  42
ENDBRANCH   6  41
ENDBRANCH   2   6
ENDBRANCH   1   3
BRANCH   1  47
ATOM     47  C   TYR A   5      13.342 -14.603 -38.975  0.00  0.00    +0.241 C 
ATOM     48  N   ASN A   6      14.241 -14.133 -38.097  0.00  0.00    -0.297 N 
ATOM     49  H   ASN A   6      13.948 -13.896 -37.128  0.00  0.00    +0.150 HD
ATOM     50  O   TYR A   5      13.625 -14.851 -40.165  0.00  0.00    -0.273 OA
BRANCH  48  51
ATOM     51  CA  ASN A   6      15.626 -13.955 -38.504  0.00  0.00    +0.158 C 
BRANCH  51  52
ATOM     52  C   ASN A   6      16.521 -14.212 -37.294  0.00  0.00    +0.241 C 
ATOM     53  O   ASN A   6      16.037 -14.766 -36.308  0.00  0.00    -0.273 OA
ATOM     54  N   SER A   7      17.777 -13.758 -37.329  0.00  0.00    -0.295 N 
ATOM     55  H   SER A   7      18.085 -13.189 -38.143  0.00  0.00    +0.150 HD
BRANCH  54  56
ATOM     56  CA  SER A   7      18.733 -14.037 -36.256  0.00  0.00    +0.178 C 
BRANCH  56  57
ATOM     57  C   SER A   7      18.719 -13.027 -35.102  0.00  0.00    +0.243 C 
ATOM     58  O   SER A   7      19.609 -13.063 -34.250  0.00  0.00    -0.273 OA
ATOM     59  N   ASP A   8      17.750 -12.089 -35.093  0.00  0.00    -0.296 N 
ATOM     60  H   ASP A   8      17.003 -12.108 -35.816  0.00  0.00    +0.150 HD
BRANCH  59  61
ATOM     61  CA  ASP A   8      17.748 -11.038 -34.062  0.00  0.00    +0.160 C 
BRANCH  61  62
ATOM     62  C   ASP A   8      17.699 -11.600 -32.663  0.00  0.00    +0.241 C 
ATOM     63  N   ASP A   9      18.590 -11.119 -31.806  0.00  0.00    -0.297 N 
ATOM     64  H   ASP A   9      19.231 -10.361 -32.117  0.00  0.00    +0.150 HD
ATOM     65  O   ASP A   8      16.873 -12.463 -32.370  0.00  0.00    -0.273 OA
BRANCH  63  66
ATOM     66  CA  ASP A   9      18.698 -11.622 -30.439  0.00  0.00    +0.160 C 
BRANCH  66  67
ATOM     67  C   ASP A   9      19.224 -10.430 -29.655  0.00  0.00    +0.241 C 
ATOM     68  N   PHE A  10      18.278  -9.709 -29.056  0.00  0.00    -0.298 N 
ATOM     69  H   PHE A  10      17.303 -10.070 -29.037  0.00  0.00    +0.150 HD
ATOM     70  O   ASP A   9      20.412 -10.096 -29.690  0.00  0.00    -0.273 OA
BRANCH  68  71
ATOM     71  CA  PHE A  10      18.570  -8.434 -28.429  0.00  0.00    +0.141 C 
BRANCH  71  72
ATOM     72  C   PHE A  10      18.282  -8.398 -26.949  0.00  0.00    +0.227 C 
ATOM     73  O   PHE A  10      17.337  -9.038 -26.478  0.00  0.00    -0.286 OA
ENDBRANCH  71  72
BRANCH  71  74
ATOM     74  CB  PHE A  10      17.728  -7.338 -29.097  0.00  0.00    +0.054 C 
BRANCH  74  75
ATOM     75  CG  PHE A  10      17.903  -7.221 -30.595  0.00  0.00    -0.020 A 
ATOM     76  CD2 PHE A  10      19.178  -7.121 -31.161  0.00  0.00    -0.004 A 
ATOM     77  CE2 PHE A  10      19.339  -6.991 -32.552  0.00  0.00    -0.000 A 
ATOM     78  CZ  PHE A  10      18.227  -6.923 -33.375  0.00  0.00    -0.000 A 
ATOM     79  CE1 PHE A  10      16.954  -6.979 -32.823  0.00  0.00    -0.000 A 
ATOM     80  CD1 PHE A  10      16.796  -7.131 -31.437  0.00  0.00    -0.004 A 
ENDBRANCH  74  75
ENDBRANCH  71  74
ENDBRANCH  68  71
ENDBRANCH  66  67
BRANCH  66  81
ATOM     81  CB  ASP A   9      19.659 -12.831 -30.438  0.00  0.00    +0.143 C 
BRANCH  81  82
ATOM     82  CG  ASP A   9      19.737 -13.572 -29.120  0.00  0.00    +0.367 C 
ATOM     83  OD2 ASP A   9      19.258 -13.027 -28.099  0.00  0.00    -0.246 OA
ATOM     84  OD1 ASP A   9      20.220 -14.735 -29.120  0.00  0.00    -0.246 OA
ENDBRANCH  81  82
ENDBRANCH  66  81
ENDBRANCH  63  66
ENDBRANCH  61  62
BRANCH  61  85
ATOM     85  CB  ASP A   8      16.575 -10.088 -34.259  0.00  0.00    +0.143 C 
BRANCH  85  86
ATOM     86  CG  ASP A   8      16.637  -9.192 -35.483  0.00  0.00    +0.367 C 
ATOM     87  OD2 ASP A   8      15.672  -8.471 -35.718  0.00  0.00    -0.246 OA
ATOM     88  OD1 ASP A   8      17.682  -9.199 -36.194  0.00  0.00    -0.246 OA
ENDBRANCH  85  86
ENDBRANCH  61  85
ENDBRANCH  59  61
ENDBRANCH  56  57
BRANCH  56  89
ATOM     89  CB  SER A   7      20.140 -14.094 -36.841  0.00  0.00    +0.166 C 
BRANCH  89  90
ATOM     90  OG  SER A   7      20.480 -12.825 -37.374  0.00  0.00    -0.380 OA
ATOM     91  H   SER A   7      20.448 -12.147 -36.654  0.00  0.00    +0.211 HD
ENDBRANCH  89  90
ENDBRANCH  56  89
ENDBRANCH  54  56
ENDBRANCH  51  52
BRANCH  51  92
ATOM     92  CB  ASN A   6      15.836 -12.550 -39.107  0.00  0.00    +0.114 C 
BRANCH  92  93
ATOM     93  CG  ASN A   6      15.503 -11.422 -38.136  0.00  0.00    +0.222 C 
ATOM     94  OD1 ASN A   6      15.357 -11.630 -36.913  0.00  0.00    -0.275 OA
ATOM     95  ND2 ASN A   6      15.300 -10.206 -38.667  0.00  0.00    -0.329 N 
ATOM     96 HD21 ASN A   6      15.015  -9.413 -38.057  0.00  0.00    +0.145 HD
ATOM     97 HD22 ASN A   6      15.428 -10.057 -39.688  0.00  0.00    +0.145 HD
ENDBRANCH  92  93
ENDBRANCH  51  92
ENDBRANCH  48  51
ENDBRANCH   1  47
BRANCH   1  98
ATOM     98  CB  TYR A   5      11.250 -13.280 -38.509  0.00  0.00    +0.055 C 
BRANCH  98  99
ATOM     99  CG  TYR A   5      11.344 -12.540 -39.823  0.00  0.00    -0.020 A 
ATOM    100  CD2 TYR A   5      12.237 -11.478 -39.985  0.00  0.00    -0.001 A 
ATOM    101  CE2 TYR A   5      12.300 -10.758 -41.180  0.00  0.00    +0.036 A 
ATOM    102  CZ  TYR A   5      11.444 -11.082 -42.218  0.00  0.00    +0.134 A 
ATOM    103  CE1 TYR A   5      10.543 -12.127 -42.081  0.00  0.00    +0.036 A 
ATOM    104  CD1 TYR A   5      10.489 -12.843 -40.881  0.00  0.00    -0.001 A 
BRANCH 102 105
ATOM    105  OH  TYR A   5      11.523 -10.390 -43.402  0.00  0.00    -0.506 OA
ATOM    106  HH  TYR A   5      10.848 -10.742 -44.034  0.00  0.00    +0.292 HD
ENDBRANCH 102 105
ENDBRANCH  98  99
ENDBRANCH   1  98
TORSDOF 42
REMARK  Name = ../refined-set-2016/4lov/4lov_pocket.pdb
REMARK  122 active torsions:
REMARK  status: ('A' for Active; 'I' for Inactive)
REMARK    1  A    between atoms: _1  and  _5
REMARK    2  A    between atoms: _5  and  _6
REMARK    3  A    between atoms: _5  and  _8
REMARK    4  A    between atoms: _6  and  _7
REMARK    5  A    between atoms: _6  and  _15
REMARK    6  A    between atoms: _8  and  _9
REMARK    7  A    between atoms: _15  and  _17
REMARK    8  A    between atoms: _17  and  _18
REMARK    9  A    between atoms: _22  and  _23
REMARK   10  A    between atoms: _28  and  _30
REMARK   11  A    between atoms: _30  and  _31
REMARK   12  A    between atoms: _30  and  _33
REMARK   13  A    between atoms: _33  and  _34
REMARK   14  A    between atoms: _37  and  _39
REMARK   15  A    between atoms: _39  and  _40
REMARK   16  A    between atoms: _42  and  _44
REMARK   17  A    between atoms: _44  and  _45
REMARK   18  A    between atoms: _47  and  _49
REMARK   19  A    between atoms: _49  and  _50
REMARK   20  A    between atoms: _49  and  _52
REMARK   21  A    between atoms: _52  and  _53
REMARK   22  A    between atoms: _58  and  _60
REMARK   23  A    between atoms: _60  and  _61
REMARK   24  A    between atoms: _60  and  _63
REMARK   25  A    between atoms: _63  and  _64
REMARK   26  A    between atoms: _69  and  _71
REMARK   27  A    between atoms: _71  and  _72
REMARK   28  A    between atoms: _71  and  _74
REMARK   29  A    between atoms: _74  and  _75
REMARK   30  A    between atoms: _78  and  _80
REMARK   31  A    between atoms: _80  and  _81
REMARK   32  A    between atoms: _80  and  _83
REMARK   33  A    between atoms: _83  and  _84
REMARK   34  A    between atoms: _89  and  _90
REMARK   35  A    between atoms: _93  and  _94
REMARK   36  A    between atoms: _99  and  _101
REMARK   37  A    between atoms: _101  and  _102
REMARK   38  A    between atoms: _101  and  _104
REMARK   39  A    between atoms: _104  and  _105
REMARK   40  A    between atoms: _105  and  _106
REMARK   41  A    between atoms: _109  and  _111
REMARK   42  A    between atoms: _111  and  _112
REMARK   43  A    between atoms: _111  and  _114
REMARK   44  A    between atoms: _114  and  _115
REMARK   45  A    between atoms: _118  and  _120
REMARK   46  A    between atoms: _120  and  _121
REMARK   47  A    between atoms: _120  and  _123
REMARK   48  A    between atoms: _123  and  _124
REMARK   49  A    between atoms: _127  and  _129
REMARK   50  A    between atoms: _129  and  _130
REMARK   51  A    between atoms: _129  and  _132
REMARK   52  A    between atoms: _132  and  _133
REMARK   53  A    between atoms: _136  and  _138
REMARK   54  A    between atoms: _138  and  _139
REMARK   55  A    between atoms: _138  and  _141
REMARK   56  A    between atoms: _141  and  _142
REMARK   57  A    between atoms: _145  and  _147
REMARK   58  A    between atoms: _147  and  _148
REMARK   59  A    between atoms: _147  and  _150
REMARK   60  A    between atoms: _150  and  _151
REMARK   61  A    between atoms: _156  and  _157
REMARK   62  A    between atoms: _159  and  _161
REMARK   63  A    between atoms: _161  and  _162
REMARK   64  A    between atoms: _161  and  _164
REMARK   65  A    between atoms: _164  and  _165
REMARK   66  A    between atoms: _170  and  _171
REMARK   67  A    between atoms: _173  and  _175
REMARK   68  A    between atoms: _175  and  _176
REMARK   69  A    between atoms: _175  and  _178
REMARK   70  A    between atoms: _178  and  _179
REMARK   71  A    between atoms: _181  and  _183
REMARK   72  A    between atoms: _183  and  _184
REMARK   73  A    between atoms: _183  and  _186
REMARK   74  A    between atoms: _186  and  _187
REMARK   75  A    between atoms: _187  and  _188
REMARK   76  A    between atoms: _188  and  _189
REMARK   77  A    between atoms: _198  and  _200
REMARK   78  A    between atoms: _200  and  _201
REMARK   79  A    between atoms: _200  and  _203
REMARK   80  A    between atoms: _203  and  _204
REMARK   81  A    between atoms: _204  and  _205
REMARK   82  A    between atoms: _210  and  _212
REMARK   83  A    between atoms: _212  and  _213
REMARK   84  A    between atoms: _212  and  _215
REMARK   85  A    between atoms: _215  and  _216
REMARK   86  A    between atoms: _219  and  _221
REMARK   87  A    between atoms: _221  and  _222
REMARK   88  A    between atoms: _221  and  _224
REMARK   89  A    between atoms: _224  and  _225
REMARK   90  A    between atoms: _230  and  _232
REMARK   91  A    between atoms: _232  and  _233
REMARK   92  A    between atoms: _232  and  _235
REMARK   93  A    between atoms: _235  and  _236
REMARK   94  A    between atoms: _241  and  _243
REMARK   95  A    between atoms: _243  and  _244
REMARK   96  A    between atoms: _243  and  _246
REMARK   97  A    between atoms: _246  and  _247
REMARK   98  A    between atoms: _252  and  _253
REMARK   99  A    between atoms: _255  and  _257
REMARK  100  A    between atoms: _257  and  _258
REMARK  101  A    between atoms: _257  and  _260
REMARK  102  A    between atoms: _260  and  _261
REMARK  103  A    between atoms: _266  and  _268
REMARK  104  A    between atoms: _268  and  _269
REMARK  105  A    between atoms: _268  and  _271
REMARK  106  A    between atoms: _271  and  _272
REMARK  107  A    between atoms: _274  and  _276
REMARK  108  A    between atoms: _276  and  _277
REMARK  109  A    between atoms: _276  and  _279
REMARK  110  A    between atoms: _279  and  _280
REMARK  111  A    between atoms: _283  and  _285
REMARK  112  A    between atoms: _285  and  _286
REMARK  113  A    between atoms: _285  and  _288
REMARK  114  A    between atoms: _288  and  _289
REMARK  115  A    between atoms: _292  and  _294
REMARK  116  A    between atoms: _294  and  _295
REMARK  117  A    between atoms: _294  and  _297
REMARK  118  A    between atoms: _297  and  _298
REMARK  119  A    between atoms: _304  and  _306
REMARK  120  A    between atoms: _306  and  _307
REMARK  121  A    between atoms: _306  and  _309
REMARK  122  A    between atoms: _309  and  _310
REMARK                            x       y       z     vdW  Elec       q    Type
REMARK                         _______ _______ _______ _____ _____    ______ ____
ROOT
ATOM      1  CB  PHE A   1      15.055  -4.698 -23.573  0.00  0.00    +0.051 C 
ENDROOT
BRANCH   1   2
ATOM      2  CG  PHE A   1      14.748  -4.570 -25.053  0.00  0.00    -0.020 A 
ATOM      3  CD2 PHE A   1      14.161  -3.413 -25.562  0.00  0.00    -0.004 A 
ATOM      4  CE2 PHE A   1      13.877  -3.290 -26.933  0.00  0.00    -0.000 A 
ATOM      5  CZ  PHE A   1      14.163  -4.335 -27.793  0.00  0.00    -0.000 A 
ATOM      6  CE1 PHE A   1      14.724  -5.497 -27.301  0.00  0.00    -0.000 A 
ATOM      7  CD1 PHE A   1      14.997  -5.621 -25.927  0.00  0.00    -0.004 A 
ENDBRANCH   1   2
BRANCH   1   8
ATOM      8  CA  PHE A   1      16.577  -4.665 -23.284  0.00  0.00    +0.137 C 
BRANCH   8   9
ATOM      9  N   PHE A   1      17.205  -5.902 -23.779  0.00  0.00    -0.239 NA
ATOM     10  H   PHE A   1      16.766  -6.804 -23.504  0.00  0.00    +0.142 HD
ENDBRANCH   8   9
BRANCH   8  11
ATOM     11  C   PHE A   1      16.862  -4.682 -21.783  0.00  0.00    +0.224 C 
ATOM     12  O   PHE A   1      16.294  -5.505 -21.039  0.00  0.00    -0.287 OA
ENDBRANCH   8  11
ENDBRANCH   1   8
TORSDOF 4
REMARK  Name = ../refined-set-2016/4lov/4lov_pocket.pdb
REMARK  122 active torsions:
REMARK  status: ('A' for Active; 'I' for Inactive)
REMARK    1  A    between atoms: _1  and  _5
REMARK    2  A    between atoms: _5  and  _6
REMARK    3  A    between atoms: _5  and  _8
REMARK    4  A    between atoms: _6  and  _7
REMARK    5  A    between atoms: _6  and  _15
REMARK    6  A    between atoms: _8  and  _9
REMARK    7  A    between atoms: _15  and  _17
REMARK    8  A    between atoms: _17  and  _18
REMARK    9  A    between atoms: _22  and  _23
REMARK   10  A    between atoms: _28  and  _30
REMARK   11  A    between atoms: _30  and  _31
REMARK   12  A    between atoms: _30  and  _33
REMARK   13  A    between atoms: _33  and  _34
REMARK   14  A    between atoms: _37  and  _39
REMARK   15  A    between atoms: _39  and  _40
REMARK   16  A    between atoms: _42  and  _44
REMARK   17  A    between atoms: _44  and  _45
REMARK   18  A    between atoms: _47  and  _49
REMARK   19  A    between atoms: _49  and  _50
REMARK   20  A    between atoms: _49  and  _52
REMARK   21  A    between atoms: _52  and  _53
REMARK   22  A    between atoms: _58  and  _60
REMARK   23  A    between atoms: _60  and  _61
REMARK   24  A    between atoms: _60  and  _63
REMARK   25  A    between atoms: _63  and  _64
REMARK   26  A    between atoms: _69  and  _71
REMARK   27  A    between atoms: _71  and  _72
REMARK   28  A    between atoms: _71  and  _74
REMARK   29  A    between atoms: _74  and  _75
REMARK   30  A    between atoms: _78  and  _80
REMARK   31  A    between atoms: _80  and  _81
REMARK   32  A    between atoms: _80  and  _83
REMARK   33  A    between atoms: _83  and  _84
REMARK   34  A    between atoms: _89  and  _90
REMARK   35  A    between atoms: _93  and  _94
REMARK   36  A    between atoms: _99  and  _101
REMARK   37  A    between atoms: _101  and  _102
REMARK   38  A    between atoms: _101  and  _104
REMARK   39  A    between atoms: _104  and  _105
REMARK   40  A    between atoms: _105  and  _106
REMARK   41  A    between atoms: _109  and  _111
REMARK   42  A    between atoms: _111  and  _112
REMARK   43  A    between atoms: _111  and  _114
REMARK   44  A    between atoms: _114  and  _115
REMARK   45  A    between atoms: _118  and  _120
REMARK   46  A    between atoms: _120  and  _121
REMARK   47  A    between atoms: _120  and  _123
REMARK   48  A    between atoms: _123  and  _124
REMARK   49  A    between atoms: _127  and  _129
REMARK   50  A    between atoms: _129  and  _130
REMARK   51  A    between atoms: _129  and  _132
REMARK   52  A    between atoms: _132  and  _133
REMARK   53  A    between atoms: _136  and  _138
REMARK   54  A    between atoms: _138  and  _139
REMARK   55  A    between atoms: _138  and  _141
REMARK   56  A    between atoms: _141  and  _142
REMARK   57  A    between atoms: _145  and  _147
REMARK   58  A    between atoms: _147  and  _148
REMARK   59  A    between atoms: _147  and  _150
REMARK   60  A    between atoms: _150  and  _151
REMARK   61  A    between atoms: _156  and  _157
REMARK   62  A    between atoms: _159  and  _161
REMARK   63  A    between atoms: _161  and  _162
REMARK   64  A    between atoms: _161  and  _164
REMARK   65  A    between atoms: _164  and  _165
REMARK   66  A    between atoms: _170  and  _171
REMARK   67  A    between atoms: _173  and  _175
REMARK   68  A    between atoms: _175  and  _176
REMARK   69  A    between atoms: _175  and  _178
REMARK   70  A    between atoms: _178  and  _179
REMARK   71  A    between atoms: _181  and  _183
REMARK   72  A    between atoms: _183  and  _184
REMARK   73  A    between atoms: _183  and  _186
REMARK   74  A    between atoms: _186  and  _187
REMARK   75  A    between atoms: _187  and  _188
REMARK   76  A    between atoms: _188  and  _189
REMARK   77  A    between atoms: _198  and  _200
REMARK   78  A    between atoms: _200  and  _201
REMARK   79  A    between atoms: _200  and  _203
REMARK   80  A    between atoms: _203  and  _204
REMARK   81  A    between atoms: _204  and  _205
REMARK   82  A    between atoms: _210  and  _212
REMARK   83  A    between atoms: _212  and  _213
REMARK   84  A    between atoms: _212  and  _215
REMARK   85  A    between atoms: _215  and  _216
REMARK   86  A    between atoms: _219  and  _221
REMARK   87  A    between atoms: _221  and  _222
REMARK   88  A    between atoms: _221  and  _224
REMARK   89  A    between atoms: _224  and  _225
REMARK   90  A    between atoms: _230  and  _232
REMARK   91  A    between atoms: _232  and  _233
REMARK   92  A    between atoms: _232  and  _235
REMARK   93  A    between atoms: _235  and  _236
REMARK   94  A    between atoms: _241  and  _243
REMARK   95  A    between atoms: _243  and  _244
REMARK   96  A    between atoms: _243  and  _246
REMARK   97  A    between atoms: _246  and  _247
REMARK   98  A    between atoms: _252  and  _253
REMARK   99  A    between atoms: _255  and  _257
REMARK  100  A    between atoms: _257  and  _258
REMARK  101  A    between atoms: _257  and  _260
REMARK  102  A    between atoms: _260  and  _261
REMARK  103  A    between atoms: _266  and  _268
REMARK  104  A    between atoms: _268  and  _269
REMARK  105  A    between atoms: _268  and  _271
REMARK  106  A    between atoms: _271  and  _272
REMARK  107  A    between atoms: _274  and  _276
REMARK  108  A    between atoms: _276  and  _277
REMARK  109  A    between atoms: _276  and  _279
REMARK  110  A    between atoms: _279  and  _280
REMARK  111  A    between atoms: _283  and  _285
REMARK  112  A    between atoms: _285  and  _286
REMARK  113  A    between atoms: _285  and  _288
REMARK  114  A    between atoms: _288  and  _289
REMARK  115  A    between atoms: _292  and  _294
REMARK  116  A    between atoms: _294  and  _295
REMARK  117  A    between atoms: _294  and  _297
REMARK  118  A    between atoms: _297  and  _298
REMARK  119  A    between atoms: _304  and  _306
REMARK  120  A    between atoms: _306  and  _307
REMARK  121  A    between atoms: _306  and  _309
REMARK  122  A    between atoms: _309  and  _310
REMARK                            x       y       z     vdW  Elec       q    Type
REMARK                         _______ _______ _______ _____ _____    ______ ____
ROOT
ATOM      1 NA   UNL     1      11.985   1.288 -32.466  0.00  0.00    +0.000 Na
ATOM      2  O   UNL     1       9.584   0.158 -32.791  0.00  0.00    +0.000 OA
ENDROOT
TORSDOF 0
REMARK  Name = ../refined-set-2016/4lov/4lov_pocket.pdb
REMARK  122 active torsions:
REMARK  status: ('A' for Active; 'I' for Inactive)
REMARK    1  A    between atoms: _1  and  _5
REMARK    2  A    between atoms: _5  and  _6
REMARK    3  A    between atoms: _5  and  _8
REMARK    4  A    between atoms: _6  and  _7
REMARK    5  A    between atoms: _6  and  _15
REMARK    6  A    between atoms: _8  and  _9
REMARK    7  A    between atoms: _15  and  _17
REMARK    8  A    between atoms: _17  and  _18
REMARK    9  A    between atoms: _22  and  _23
REMARK   10  A    between atoms: _28  and  _30
REMARK   11  A    between atoms: _30  and  _31
REMARK   12  A    between atoms: _30  and  _33
REMARK   13  A    between atoms: _33  and  _34
REMARK   14  A    between atoms: _37  and  _39
REMARK   15  A    between atoms: _39  and  _40
REMARK   16  A    between atoms: _42  and  _44
REMARK   17  A    between atoms: _44  and  _45
REMARK   18  A    between atoms: _47  and  _49
REMARK   19  A    between atoms: _49  and  _50
REMARK   20  A    between atoms: _49  and  _52
REMARK   21  A    between atoms: _52  and  _53
REMARK   22  A    between atoms: _58  and  _60
REMARK   23  A    between atoms: _60  and  _61
REMARK   24  A    between atoms: _60  and  _63
REMARK   25  A    between atoms: _63  and  _64
REMARK   26  A    between atoms: _69  and  _71
REMARK   27  A    between atoms: _71  and  _72
REMARK   28  A    between atoms: _71  and  _74
REMARK   29  A    between atoms: _74  and  _75
REMARK   30  A    between atoms: _78  and  _80
REMARK   31  A    between atoms: _80  and  _81
REMARK   32  A    between atoms: _80  and  _83
REMARK   33  A    between atoms: _83  and  _84
REMARK   34  A    between atoms: _89  and  _90
REMARK   35  A    between atoms: _93  and  _94
REMARK   36  A    between atoms: _99  and  _101
REMARK   37  A    between atoms: _101  and  _102
REMARK   38  A    between atoms: _101  and  _104
REMARK   39  A    between atoms: _104  and  _105
REMARK   40  A    between atoms: _105  and  _106
REMARK   41  A    between atoms: _109  and  _111
REMARK   42  A    between atoms: _111  and  _112
REMARK   43  A    between atoms: _111  and  _114
REMARK   44  A    between atoms: _114  and  _115
REMARK   45  A    between atoms: _118  and  _120
REMARK   46  A    between atoms: _120  and  _121
REMARK   47  A    between atoms: _120  and  _123
REMARK   48  A    between atoms: _123  and  _124
REMARK   49  A    between atoms: _127  and  _129
REMARK   50  A    between atoms: _129  and  _130
REMARK   51  A    between atoms: _129  and  _132
REMARK   52  A    between atoms: _132  and  _133
REMARK   53  A    between atoms: _136  and  _138
REMARK   54  A    between atoms: _138  and  _139
REMARK   55  A    between atoms: _138  and  _141
REMARK   56  A    between atoms: _141  and  _142
REMARK   57  A    between atoms: _145  and  _147
REMARK   58  A    between atoms: _147  and  _148
REMARK   59  A    between atoms: _147  and  _150
REMARK   60  A    between atoms: _150  and  _151
REMARK   61  A    between atoms: _156  and  _157
REMARK   62  A    between atoms: _159  and  _161
REMARK   63  A    between atoms: _161  and  _162
REMARK   64  A    between atoms: _161  and  _164
REMARK   65  A    between atoms: _164  and  _165
REMARK   66  A    between atoms: _170  and  _171
REMARK   67  A    between atoms: _173  and  _175
REMARK   68  A    between atoms: _175  and  _176
REMARK   69  A    between atoms: _175  and  _178
REMARK   70  A    between atoms: _178  and  _179
REMARK   71  A    between atoms: _181  and  _183
REMARK   72  A    between atoms: _183  and  _184
REMARK   73  A    between atoms: _183  and  _186
REMARK   74  A    between atoms: _186  and  _187
REMARK   75  A    between atoms: _187  and  _188
REMARK   76  A    between atoms: _188  and  _189
REMARK   77  A    between atoms: _198  and  _200
REMARK   78  A    between atoms: _200  and  _201
REMARK   79  A    between atoms: _200  and  _203
REMARK   80  A    between atoms: _203  and  _204
REMARK   81  A    between atoms: _204  and  _205
REMARK   82  A    between atoms: _210  and  _212
REMARK   83  A    between atoms: _212  and  _213
REMARK   84  A    between atoms: _212  and  _215
REMARK   85  A    between atoms: _215  and  _216
REMARK   86  A    between atoms: _219  and  _221
REMARK   87  A    between atoms: _221  and  _222
REMARK   88  A    between atoms: _221  and  _224
REMARK   89  A    between atoms: _224  and  _225
REMARK   90  A    between atoms: _230  and  _232
REMARK   91  A    between atoms: _232  and  _233
REMARK   92  A    between atoms: _232  and  _235
REMARK   93  A    between atoms: _235  and  _236
REMARK   94  A    between atoms: _241  and  _243
REMARK   95  A    between atoms: _243  and  _244
REMARK   96  A    between atoms: _243  and  _246
REMARK   97  A    between atoms: _246  and  _247
REMARK   98  A    between atoms: _252  and  _253
REMARK   99  A    between atoms: _255  and  _257
REMARK  100  A    between atoms: _257  and  _258
REMARK  101  A    between atoms: _257  and  _260
REMARK  102  A    between atoms: _260  and  _261
REMARK  103  A    between atoms: _266  and  _268
REMARK  104  A    between atoms: _268  and  _269
REMARK  105  A    between atoms: _268  and  _271
REMARK  106  A    between atoms: _271  and  _272
REMARK  107  A    between atoms: _274  and  _276
REMARK  108  A    between atoms: _276  and  _277
REMARK  109  A    between atoms: _276  and  _279
REMARK  110  A    between atoms: _279  and  _280
REMARK  111  A    between atoms: _283  and  _285
REMARK  112  A    between atoms: _285  and  _286
REMARK  113  A    between atoms: _285  and  _288
REMARK  114  A    between atoms: _288  and  _289
REMARK  115  A    between atoms: _292  and  _294
REMARK  116  A    between atoms: _294  and  _295
REMARK  117  A    between atoms: _294  and  _297
REMARK  118  A    between atoms: _297  and  _298
REMARK  119  A    between atoms: _304  and  _306
REMARK  120  A    between atoms: _306  and  _307
REMARK  121  A    between atoms: _306  and  _309
REMARK  122  A    between atoms: _309  and  _310
REMARK                            x       y       z     vdW  Elec       q    Type
REMARK                         _______ _______ _______ _____ _____    ______ ____
ROOT
ATOM      1 NA   UNL     1      18.628 -10.759 -38.369  0.00  0.00    +0.000 Na
ENDROOT
TORSDOF 0
REMARK  Name = ../refined-set-2016/4lov/4lov_pocket.pdb
REMARK  122 active torsions:
REMARK  status: ('A' for Active; 'I' for Inactive)
REMARK    1  A    between atoms: _1  and  _5
REMARK    2  A    between atoms: _5  and  _6
REMARK    3  A    between atoms: _5  and  _8
REMARK    4  A    between atoms: _6  and  _7
REMARK    5  A    between atoms: _6  and  _15
REMARK    6  A    between atoms: _8  and  _9
REMARK    7  A    between atoms: _15  and  _17
REMARK    8  A    between atoms: _17  and  _18
REMARK    9  A    between atoms: _22  and  _23
REMARK   10  A    between atoms: _28  and  _30
REMARK   11  A    between atoms: _30  and  _31
REMARK   12  A    between atoms: _30  and  _33
REMARK   13  A    between atoms: _33  and  _34
REMARK   14  A    between atoms: _37  and  _39
REMARK   15  A    between atoms: _39  and  _40
REMARK   16  A    between atoms: _42  and  _44
REMARK   17  A    between atoms: _44  and  _45
REMARK   18  A    between atoms: _47  and  _49
REMARK   19  A    between atoms: _49  and  _50
REMARK   20  A    between atoms: _49  and  _52
REMARK   21  A    between atoms: _52  and  _53
REMARK   22  A    between atoms: _58  and  _60
REMARK   23  A    between atoms: _60  and  _61
REMARK   24  A    between atoms: _60  and  _63
REMARK   25  A    between atoms: _63  and  _64
REMARK   26  A    between atoms: _69  and  _71
REMARK   27  A    between atoms: _71  and  _72
REMARK   28  A    between atoms: _71  and  _74
REMARK   29  A    between atoms: _74  and  _75
REMARK   30  A    between atoms: _78  and  _80
REMARK   31  A    between atoms: _80  and  _81
REMARK   32  A    between atoms: _80  and  _83
REMARK   33  A    between atoms: _83  and  _84
REMARK   34  A    between atoms: _89  and  _90
REMARK   35  A    between atoms: _93  and  _94
REMARK   36  A    between atoms: _99  and  _101
REMARK   37  A    between atoms: _101  and  _102
REMARK   38  A    between atoms: _101  and  _104
REMARK   39  A    between atoms: _104  and  _105
REMARK   40  A    between atoms: _105  and  _106
REMARK   41  A    between atoms: _109  and  _111
REMARK   42  A    between atoms: _111  and  _112
REMARK   43  A    between atoms: _111  and  _114
REMARK   44  A    between atoms: _114  and  _115
REMARK   45  A    between atoms: _118  and  _120
REMARK   46  A    between atoms: _120  and  _121
REMARK   47  A    between atoms: _120  and  _123
REMARK   48  A    between atoms: _123  and  _124
REMARK   49  A    between atoms: _127  and  _129
REMARK   50  A    between atoms: _129  and  _130
REMARK   51  A    between atoms: _129  and  _132
REMARK   52  A    between atoms: _132  and  _133
REMARK   53  A    between atoms: _136  and  _138
REMARK   54  A    between atoms: _138  and  _139
REMARK   55  A    between atoms: _138  and  _141
REMARK   56  A    between atoms: _141  and  _142
REMARK   57  A    between atoms: _145  and  _147
REMARK   58  A    between atoms: _147  and  _148
REMARK   59  A    between atoms: _147  and  _150
REMARK   60  A    between atoms: _150  and  _151
REMARK   61  A    between atoms: _156  and  _157
REMARK   62  A    between atoms: _159  and  _161
REMARK   63  A    between atoms: _161  and  _162
REMARK   64  A    between atoms: _161  and  _164
REMARK   65  A    between atoms: _164  and  _165
REMARK   66  A    between atoms: _170  and  _171
REMARK   67  A    between atoms: _173  and  _175
REMARK   68  A    between atoms: _175  and  _176
REMARK   69  A    between atoms: _175  and  _178
REMARK   70  A    between atoms: _178  and  _179
REMARK   71  A    between atoms: _181  and  _183
REMARK   72  A    between atoms: _183  and  _184
REMARK   73  A    between atoms: _183  and  _186
REMARK   74  A    between atoms: _186  and  _187
REMARK   75  A    between atoms: _187  and  _188
REMARK   76  A    between atoms: _188  and  _189
REMARK   77  A    between atoms: _198  and  _200
REMARK   78  A    between atoms: _200  and  _201
REMARK   79  A    between atoms: _200  and  _203
REMARK   80  A    between atoms: _203  and  _204
REMARK   81  A    between atoms: _204  and  _205
REMARK   82  A    between atoms: _210  and  _212
REMARK   83  A    between atoms: _212  and  _213
REMARK   84  A    between atoms: _212  and  _215
REMARK   85  A    between atoms: _215  and  _216
REMARK   86  A    between atoms: _219  and  _221
REMARK   87  A    between atoms: _221  and  _222
REMARK   88  A    between atoms: _221  and  _224
REMARK   89  A    between atoms: _224  and  _225
REMARK   90  A    between atoms: _230  and  _232
REMARK   91  A    between atoms: _232  and  _233
REMARK   92  A    between atoms: _232  and  _235
REMARK   93  A    between atoms: _235  and  _236
REMARK   94  A    between atoms: _241  and  _243
REMARK   95  A    between atoms: _243  and  _244
REMARK   96  A    between atoms: _243  and  _246
REMARK   97  A    between atoms: _246  and  _247
REMARK   98  A    between atoms: _252  and  _253
REMARK   99  A    between atoms: _255  and  _257
REMARK  100  A    between atoms: _257  and  _258
REMARK  101  A    between atoms: _257  and  _260
REMARK  102  A    between atoms: _260  and  _261
REMARK  103  A    between atoms: _266  and  _268
REMARK  104  A    between atoms: _268  and  _269
REMARK  105  A    between atoms: _268  and  _271
REMARK  106  A    between atoms: _271  and  _272
REMARK  107  A    between atoms: _274  and  _276
REMARK  108  A    between atoms: _276  and  _277
REMARK  109  A    between atoms: _276  and  _279
REMARK  110  A    between atoms: _279  and  _280
REMARK  111  A    between atoms: _283  and  _285
REMARK  112  A    between atoms: _285  and  _286
REMARK  113  A    between atoms: _285  and  _288
REMARK  114  A    between atoms: _288  and  _289
REMARK  115  A    between atoms: _292  and  _294
REMARK  116  A    between atoms: _294  and  _295
REMARK  117  A    between atoms: _294  and  _297
REMARK  118  A    between atoms: _297  and  _298
REMARK  119  A    between atoms: _304  and  _306
REMARK  120  A    between atoms: _306  and  _307
REMARK  121  A    between atoms: _306  and  _309
REMARK  122  A    between atoms: _309  and  _310
REMARK                            x       y       z     vdW  Elec       q    Type
REMARK                         _______ _______ _______ _____ _____    ______ ____
ROOT
ATOM      1  O   HOH     1      15.550 -14.473 -33.458  0.00  0.00    +0.000 OA
ENDROOT
TORSDOF 0
REMARK  Name = ../refined-set-2016/4lov/4lov_pocket.pdb
REMARK  122 active torsions:
REMARK  status: ('A' for Active; 'I' for Inactive)
REMARK    1  A    between atoms: _1  and  _5
REMARK    2  A    between atoms: _5  and  _6
REMARK    3  A    between atoms: _5  and  _8
REMARK    4  A    between atoms: _6  and  _7
REMARK    5  A    between atoms: _6  and  _15
REMARK    6  A    between atoms: _8  and  _9
REMARK    7  A    between atoms: _15  and  _17
REMARK    8  A    between atoms: _17  and  _18
REMARK    9  A    between atoms: _22  and  _23
REMARK   10  A    between atoms: _28  and  _30
REMARK   11  A    between atoms: _30  and  _31
REMARK   12  A    between atoms: _30  and  _33
REMARK   13  A    between atoms: _33  and  _34
REMARK   14  A    between atoms: _37  and  _39
REMARK   15  A    between atoms: _39  and  _40
REMARK   16  A    between atoms: _42  and  _44
REMARK   17  A    between atoms: _44  and  _45
REMARK   18  A    between atoms: _47  and  _49
REMARK   19  A    between atoms: _49  and  _50
REMARK   20  A    between atoms: _49  and  _52
REMARK   21  A    between atoms: _52  and  _53
REMARK   22  A    between atoms: _58  and  _60
REMARK   23  A    between atoms: _60  and  _61
REMARK   24  A    between atoms: _60  and  _63
REMARK   25  A    between atoms: _63  and  _64
REMARK   26  A    between atoms: _69  and  _71
REMARK   27  A    between atoms: _71  and  _72
REMARK   28  A    between atoms: _71  and  _74
REMARK   29  A    between atoms: _74  and  _75
REMARK   30  A    between atoms: _78  and  _80
REMARK   31  A    between atoms: _80  and  _81
REMARK   32  A    between atoms: _80  and  _83
REMARK   33  A    between atoms: _83  and  _84
REMARK   34  A    between atoms: _89  and  _90
REMARK   35  A    between atoms: _93  and  _94
REMARK   36  A    between atoms: _99  and  _101
REMARK   37  A    between atoms: _101  and  _102
REMARK   38  A    between atoms: _101  and  _104
REMARK   39  A    between atoms: _104  and  _105
REMARK   40  A    between atoms: _105  and  _106
REMARK   41  A    between atoms: _109  and  _111
REMARK   42  A    between atoms: _111  and  _112
REMARK   43  A    between atoms: _111  and  _114
REMARK   44  A    between atoms: _114  and  _115
REMARK   45  A    between atoms: _118  and  _120
REMARK   46  A    between atoms: _120  and  _121
REMARK   47  A    between atoms: _120  and  _123
REMARK   48  A    between atoms: _123  and  _124
REMARK   49  A    between atoms: _127  and  _129
REMARK   50  A    between atoms: _129  and  _130
REMARK   51  A    between atoms: _129  and  _132
REMARK   52  A    between atoms: _132  and  _133
REMARK   53  A    between atoms: _136  and  _138
REMARK   54  A    between atoms: _138  and  _139
REMARK   55  A    between atoms: _138  and  _141
REMARK   56  A    between atoms: _141  and  _142
REMARK   57  A    between atoms: _145  and  _147
REMARK   58  A    between atoms: _147  and  _148
REMARK   59  A    between atoms: _147  and  _150
REMARK   60  A    between atoms: _150  and  _151
REMARK   61  A    between atoms: _156  and  _157
REMARK   62  A    between atoms: _159  and  _161
REMARK   63  A    between atoms: _161  and  _162
REMARK   64  A    between atoms: _161  and  _164
REMARK   65  A    between atoms: _164  and  _165
REMARK   66  A    between atoms: _170  and  _171
REMARK   67  A    between atoms: _173  and  _175
REMARK   68  A    between atoms: _175  and  _176
REMARK   69  A    between atoms: _175  and  _178
REMARK   70  A    between atoms: _178  and  _179
REMARK   71  A    between atoms: _181  and  _183
REMARK   72  A    between atoms: _183  and  _184
REMARK   73  A    between atoms: _183  and  _186
REMARK   74  A    between atoms: _186  and  _187
REMARK   75  A    between atoms: _187  and  _188
REMARK   76  A    between atoms: _188  and  _189
REMARK   77  A    between atoms: _198  and  _200
REMARK   78  A    between atoms: _200  and  _201
REMARK   79  A    between atoms: _200  and  _203
REMARK   80  A    between atoms: _203  and  _204
REMARK   81  A    between atoms: _204  and  _205
REMARK   82  A    between atoms: _210  and  _212
REMARK   83  A    between atoms: _212  and  _213
REMARK   84  A    between atoms: _212  and  _215
REMARK   85  A    between atoms: _215  and  _216
REMARK   86  A    between atoms: _219  and  _221
REMARK   87  A    between atoms: _221  and  _222
REMARK   88  A    between atoms: _221  and  _224
REMARK   89  A    between atoms: _224  and  _225
REMARK   90  A    between atoms: _230  and  _232
REMARK   91  A    between atoms: _232  and  _233
REMARK   92  A    between atoms: _232  and  _235
REMARK   93  A    between atoms: _235  and  _236
REMARK   94  A    between atoms: _241  and  _243
REMARK   95  A    between atoms: _243  and  _244
REMARK   96  A    between atoms: _243  and  _246
REMARK   97  A    between atoms: _246  and  _247
REMARK   98  A    between atoms: _252  and  _253
REMARK   99  A    between atoms: _255  and  _257
REMARK  100  A    between atoms: _257  and  _258
REMARK  101  A    between atoms: _257  and  _260
REMARK  102  A    between atoms: _260  and  _261
REMARK  103  A    between atoms: _266  and  _268
REMARK  104  A    between atoms: _268  and  _269
REMARK  105  A    between atoms: _268  and  _271
REMARK  106  A    between atoms: _271  and  _272
REMARK  107  A    between atoms: _274  and  _276
REMARK  108  A    between atoms: _276  and  _277
REMARK  109  A    between atoms: _276  and  _279
REMARK  110  A    between atoms: _279  and  _280
REMARK  111  A    between atoms: _283  and  _285
REMARK  112  A    between atoms: _285  and  _286
REMARK  113  A    between atoms: _285  and  _288
REMARK  114  A    between atoms: _288  and  _289
REMARK  115  A    between atoms: _292  and  _294
REMARK  116  A    between atoms: _294  and  _295
REMARK  117  A    between atoms: _294  and  _297
REMARK  118  A    between atoms: _297  and  _298
REMARK  119  A    between atoms: _304  and  _306
REMARK  120  A    between atoms: _306  and  _307
REMARK  121  A    between atoms: _306  and  _309
REMARK  122  A    between atoms: _309  and  _310
REMARK                            x       y       z     vdW  Elec       q    Type
REMARK                         _______ _______ _______ _____ _____    ______ ____
ROOT
ATOM      1  O   HOH     1      21.090 -10.034 -33.117  0.00  0.00    +0.000 OA
ENDROOT
TORSDOF 0
REMARK  Name = ../refined-set-2016/4lov/4lov_pocket.pdb
REMARK  122 active torsions:
REMARK  status: ('A' for Active; 'I' for Inactive)
REMARK    1  A    between atoms: _1  and  _5
REMARK    2  A    between atoms: _5  and  _6
REMARK    3  A    between atoms: _5  and  _8
REMARK    4  A    between atoms: _6  and  _7
REMARK    5  A    between atoms: _6  and  _15
REMARK    6  A    between atoms: _8  and  _9
REMARK    7  A    between atoms: _15  and  _17
REMARK    8  A    between atoms: _17  and  _18
REMARK    9  A    between atoms: _22  and  _23
REMARK   10  A    between atoms: _28  and  _30
REMARK   11  A    between atoms: _30  and  _31
REMARK   12  A    between atoms: _30  and  _33
REMARK   13  A    between atoms: _33  and  _34
REMARK   14  A    between atoms: _37  and  _39
REMARK   15  A    between atoms: _39  and  _40
REMARK   16  A    between atoms: _42  and  _44
REMARK   17  A    between atoms: _44  and  _45
REMARK   18  A    between atoms: _47  and  _49
REMARK   19  A    between atoms: _49  and  _50
REMARK   20  A    between atoms: _49  and  _52
REMARK   21  A    between atoms: _52  and  _53
REMARK   22  A    between atoms: _58  and  _60
REMARK   23  A    between atoms: _60  and  _61
REMARK   24  A    between atoms: _60  and  _63
REMARK   25  A    between atoms: _63  and  _64
REMARK   26  A    between atoms: _69  and  _71
REMARK   27  A    between atoms: _71  and  _72
REMARK   28  A    between atoms: _71  and  _74
REMARK   29  A    between atoms: _74  and  _75
REMARK   30  A    between atoms: _78  and  _80
REMARK   31  A    between atoms: _80  and  _81
REMARK   32  A    between atoms: _80  and  _83
REMARK   33  A    between atoms: _83  and  _84
REMARK   34  A    between atoms: _89  and  _90
REMARK   35  A    between atoms: _93  and  _94
REMARK   36  A    between atoms: _99  and  _101
REMARK   37  A    between atoms: _101  and  _102
REMARK   38  A    between atoms: _101  and  _104
REMARK   39  A    between atoms: _104  and  _105
REMARK   40  A    between atoms: _105  and  _106
REMARK   41  A    between atoms: _109  and  _111
REMARK   42  A    between atoms: _111  and  _112
REMARK   43  A    between atoms: _111  and  _114
REMARK   44  A    between atoms: _114  and  _115
REMARK   45  A    between atoms: _118  and  _120
REMARK   46  A    between atoms: _120  and  _121
REMARK   47  A    between atoms: _120  and  _123
REMARK   48  A    between atoms: _123  and  _124
REMARK   49  A    between atoms: _127  and  _129
REMARK   50  A    between atoms: _129  and  _130
REMARK   51  A    between atoms: _129  and  _132
REMARK   52  A    between atoms: _132  and  _133
REMARK   53  A    between atoms: _136  and  _138
REMARK   54  A    between atoms: _138  and  _139
REMARK   55  A    between atoms: _138  and  _141
REMARK   56  A    between atoms: _141  and  _142
REMARK   57  A    between atoms: _145  and  _147
REMARK   58  A    between atoms: _147  and  _148
REMARK   59  A    between atoms: _147  and  _150
REMARK   60  A    between atoms: _150  and  _151
REMARK   61  A    between atoms: _156  and  _157
REMARK   62  A    between atoms: _159  and  _161
REMARK   63  A    between atoms: _161  and  _162
REMARK   64  A    between atoms: _161  and  _164
REMARK   65  A    between atoms: _164  and  _165
REMARK   66  A    between atoms: _170  and  _171
REMARK   67  A    between atoms: _173  and  _175
REMARK   68  A    between atoms: _175  and  _176
REMARK   69  A    between atoms: _175  and  _178
REMARK   70  A    between atoms: _178  and  _179
REMARK   71  A    between atoms: _181  and  _183
REMARK   72  A    between atoms: _183  and  _184
REMARK   73  A    between atoms: _183  and  _186
REMARK   74  A    between atoms: _186  and  _187
REMARK   75  A    between atoms: _187  and  _188
REMARK   76  A    between atoms: _188  and  _189
REMARK   77  A    between atoms: _198  and  _200
REMARK   78  A    between atoms: _200  and  _201
REMARK   79  A    between atoms: _200  and  _203
REMARK   80  A    between atoms: _203  and  _204
REMARK   81  A    between atoms: _204  and  _205
REMARK   82  A    between atoms: _210  and  _212
REMARK   83  A    between atoms: _212  and  _213
REMARK   84  A    between atoms: _212  and  _215
REMARK   85  A    between atoms: _215  and  _216
REMARK   86  A    between atoms: _219  and  _221
REMARK   87  A    between atoms: _221  and  _222
REMARK   88  A    between atoms: _221  and  _224
REMARK   89  A    between atoms: _224  and  _225
REMARK   90  A    between atoms: _230  and  _232
REMARK   91  A    between atoms: _232  and  _233
REMARK   92  A    between atoms: _232  and  _235
REMARK   93  A    between atoms: _235  and  _236
REMARK   94  A    between atoms: _241  and  _243
REMARK   95  A    between atoms: _243  and  _244
REMARK   96  A    between atoms: _243  and  _246
REMARK   97  A    between atoms: _246  and  _247
REMARK   98  A    between atoms: _252  and  _253
REMARK   99  A    between atoms: _255  and  _257
REMARK  100  A    between atoms: _257  and  _258
REMARK  101  A    between atoms: _257  and  _260
REMARK  102  A    between atoms: _260  and  _261
REMARK  103  A    between atoms: _266  and  _268
REMARK  104  A    between atoms: _268  and  _269
REMARK  105  A    between atoms: _268  and  _271
REMARK  106  A    between atoms: _271  and  _272
REMARK  107  A    between atoms: _274  and  _276
REMARK  108  A    between atoms: _276  and  _277
REMARK  109  A    between atoms: _276  and  _279
REMARK  110  A    between atoms: _279  and  _280
REMARK  111  A    between atoms: _283  and  _285
REMARK  112  A    between atoms: _285  and  _286
REMARK  113  A    between atoms: _285  and  _288
REMARK  114  A    between atoms: _288  and  _289
REMARK  115  A    between atoms: _292  and  _294
REMARK  116  A    between atoms: _294  and  _295
REMARK  117  A    between atoms: _294  and  _297
REMARK  118  A    between atoms: _297  and  _298
REMARK  119  A    between atoms: _304  and  _306
REMARK  120  A    between atoms: _306  and  _307
REMARK  121  A    between atoms: _306  and  _309
REMARK  122  A    between atoms: _309  and  _310
REMARK                            x       y       z     vdW  Elec       q    Type
REMARK                         _______ _______ _______ _____ _____    ______ ____
ROOT
ATOM      1  O   HOH     1       4.758  -1.175 -35.977  0.00  0.00    +0.000 OA
ENDROOT
TORSDOF 0
REMARK  Name = ../refined-set-2016/4lov/4lov_pocket.pdb
REMARK  122 active torsions:
REMARK  status: ('A' for Active; 'I' for Inactive)
REMARK    1  A    between atoms: _1  and  _5
REMARK    2  A    between atoms: _5  and  _6
REMARK    3  A    between atoms: _5  and  _8
REMARK    4  A    between atoms: _6  and  _7
REMARK    5  A    between atoms: _6  and  _15
REMARK    6  A    between atoms: _8  and  _9
REMARK    7  A    between atoms: _15  and  _17
REMARK    8  A    between atoms: _17  and  _18
REMARK    9  A    between atoms: _22  and  _23
REMARK   10  A    between atoms: _28  and  _30
REMARK   11  A    between atoms: _30  and  _31
REMARK   12  A    between atoms: _30  and  _33
REMARK   13  A    between atoms: _33  and  _34
REMARK   14  A    between atoms: _37  and  _39
REMARK   15  A    between atoms: _39  and  _40
REMARK   16  A    between atoms: _42  and  _44
REMARK   17  A    between atoms: _44  and  _45
REMARK   18  A    between atoms: _47  and  _49
REMARK   19  A    between atoms: _49  and  _50
REMARK   20  A    between atoms: _49  and  _52
REMARK   21  A    between atoms: _52  and  _53
REMARK   22  A    between atoms: _58  and  _60
REMARK   23  A    between atoms: _60  and  _61
REMARK   24  A    between atoms: _60  and  _63
REMARK   25  A    between atoms: _63  and  _64
REMARK   26  A    between atoms: _69  and  _71
REMARK   27  A    between atoms: _71  and  _72
REMARK   28  A    between atoms: _71  and  _74
REMARK   29  A    between atoms: _74  and  _75
REMARK   30  A    between atoms: _78  and  _80
REMARK   31  A    between atoms: _80  and  _81
REMARK   32  A    between atoms: _80  and  _83
REMARK   33  A    between atoms: _83  and  _84
REMARK   34  A    between atoms: _89  and  _90
REMARK   35  A    between atoms: _93  and  _94
REMARK   36  A    between atoms: _99  and  _101
REMARK   37  A    between atoms: _101  and  _102
REMARK   38  A    between atoms: _101  and  _104
REMARK   39  A    between atoms: _104  and  _105
REMARK   40  A    between atoms: _105  and  _106
REMARK   41  A    between atoms: _109  and  _111
REMARK   42  A    between atoms: _111  and  _112
REMARK   43  A    between atoms: _111  and  _114
REMARK   44  A    between atoms: _114  and  _115
REMARK   45  A    between atoms: _118  and  _120
REMARK   46  A    between atoms: _120  and  _121
REMARK   47  A    between atoms: _120  and  _123
REMARK   48  A    between atoms: _123  and  _124
REMARK   49  A    between atoms: _127  and  _129
REMARK   50  A    between atoms: _129  and  _130
REMARK   51  A    between atoms: _129  and  _132
REMARK   52  A    between atoms: _132  and  _133
REMARK   53  A    between atoms: _136  and  _138
REMARK   54  A    between atoms: _138  and  _139
REMARK   55  A    between atoms: _138  and  _141
REMARK   56  A    between atoms: _141  and  _142
REMARK   57  A    between atoms: _145  and  _147
REMARK   58  A    between atoms: _147  and  _148
REMARK   59  A    between atoms: _147  and  _150
REMARK   60  A    between atoms: _150  and  _151
REMARK   61  A    between atoms: _156  and  _157
REMARK   62  A    between atoms: _159  and  _161
REMARK   63  A    between atoms: _161  and  _162
REMARK   64  A    between atoms: _161  and  _164
REMARK   65  A    between atoms: _164  and  _165
REMARK   66  A    between atoms: _170  and  _171
REMARK   67  A    between atoms: _173  and  _175
REMARK   68  A    between atoms: _175  and  _176
REMARK   69  A    between atoms: _175  and  _178
REMARK   70  A    between atoms: _178  and  _179
REMARK   71  A    between atoms: _181  and  _183
REMARK   72  A    between atoms: _183  and  _184
REMARK   73  A    between atoms: _183  and  _186
REMARK   74  A    between atoms: _186  and  _187
REMARK   75  A    between atoms: _187  and  _188
REMARK   76  A    between atoms: _188  and  _189
REMARK   77  A    between atoms: _198  and  _200
REMARK   78  A    between atoms: _200  and  _201
REMARK   79  A    between atoms: _200  and  _203
REMARK   80  A    between atoms: _203  and  _204
REMARK   81  A    between atoms: _204  and  _205
REMARK   82  A    between atoms: _210  and  _212
REMARK   83  A    between atoms: _212  and  _213
REMARK   84  A    between atoms: _212  and  _215
REMARK   85  A    between atoms: _215  and  _216
REMARK   86  A    between atoms: _219  and  _221
REMARK   87  A    between atoms: _221  and  _222
REMARK   88  A    between atoms: _221  and  _224
REMARK   89  A    between atoms: _224  and  _225
REMARK   90  A    between atoms: _230  and  _232
REMARK   91  A    between atoms: _232  and  _233
REMARK   92  A    between atoms: _232  and  _235
REMARK   93  A    between atoms: _235  and  _236
REMARK   94  A    between atoms: _241  and  _243
REMARK   95  A    between atoms: _243  and  _244
REMARK   96  A    between atoms: _243  and  _246
REMARK   97  A    between atoms: _246  and  _247
REMARK   98  A    between atoms: _252  and  _253
REMARK   99  A    between atoms: _255  and  _257
REMARK  100  A    between atoms: _257  and  _258
REMARK  101  A    between atoms: _257  and  _260
REMARK  102  A    between atoms: _260  and  _261
REMARK  103  A    between atoms: _266  and  _268
REMARK  104  A    between atoms: _268  and  _269
REMARK  105  A    between atoms: _268  and  _271
REMARK  106  A    between atoms: _271  and  _272
REMARK  107  A    between atoms: _274  and  _276
REMARK  108  A    between atoms: _276  and  _277
REMARK  109  A    between atoms: _276  and  _279
REMARK  110  A    between atoms: _279  and  _280
REMARK  111  A    between atoms: _283  and  _285
REMARK  112  A    between atoms: _285  and  _286
REMARK  113  A    between atoms: _285  and  _288
REMARK  114  A    between atoms: _288  and  _289
REMARK  115  A    between atoms: _292  and  _294
REMARK  116  A    between atoms: _294  and  _295
REMARK  117  A    between atoms: _294  and  _297
REMARK  118  A    between atoms: _297  and  _298
REMARK  119  A    between atoms: _304  and  _306
REMARK  120  A    between atoms: _306  and  _307
REMARK  121  A    between atoms: _306  and  _309
REMARK  122  A    between atoms: _309  and  _310
REMARK                            x       y       z     vdW  Elec       q    Type
REMARK                         _______ _______ _______ _____ _____    ______ ____
ROOT
ATOM      1  O   HOH     1      14.495  -7.390 -37.998  0.00  0.00    +0.000 OA
ENDROOT
TORSDOF 0
REMARK  Name = ../refined-set-2016/4lov/4lov_pocket.pdb
REMARK  122 active torsions:
REMARK  status: ('A' for Active; 'I' for Inactive)
REMARK    1  A    between atoms: _1  and  _5
REMARK    2  A    between atoms: _5  and  _6
REMARK    3  A    between atoms: _5  and  _8
REMARK    4  A    between atoms: _6  and  _7
REMARK    5  A    between atoms: _6  and  _15
REMARK    6  A    between atoms: _8  and  _9
REMARK    7  A    between atoms: _15  and  _17
REMARK    8  A    between atoms: _17  and  _18
REMARK    9  A    between atoms: _22  and  _23
REMARK   10  A    between atoms: _28  and  _30
REMARK   11  A    between atoms: _30  and  _31
REMARK   12  A    between atoms: _30  and  _33
REMARK   13  A    between atoms: _33  and  _34
REMARK   14  A    between atoms: _37  and  _39
REMARK   15  A    between atoms: _39  and  _40
REMARK   16  A    between atoms: _42  and  _44
REMARK   17  A    between atoms: _44  and  _45
REMARK   18  A    between atoms: _47  and  _49
REMARK   19  A    between atoms: _49  and  _50
REMARK   20  A    between atoms: _49  and  _52
REMARK   21  A    between atoms: _52  and  _53
REMARK   22  A    between atoms: _58  and  _60
REMARK   23  A    between atoms: _60  and  _61
REMARK   24  A    between atoms: _60  and  _63
REMARK   25  A    between atoms: _63  and  _64
REMARK   26  A    between atoms: _69  and  _71
REMARK   27  A    between atoms: _71  and  _72
REMARK   28  A    between atoms: _71  and  _74
REMARK   29  A    between atoms: _74  and  _75
REMARK   30  A    between atoms: _78  and  _80
REMARK   31  A    between atoms: _80  and  _81
REMARK   32  A    between atoms: _80  and  _83
REMARK   33  A    between atoms: _83  and  _84
REMARK   34  A    between atoms: _89  and  _90
REMARK   35  A    between atoms: _93  and  _94
REMARK   36  A    between atoms: _99  and  _101
REMARK   37  A    between atoms: _101  and  _102
REMARK   38  A    between atoms: _101  and  _104
REMARK   39  A    between atoms: _104  and  _105
REMARK   40  A    between atoms: _105  and  _106
REMARK   41  A    between atoms: _109  and  _111
REMARK   42  A    between atoms: _111  and  _112
REMARK   43  A    between atoms: _111  and  _114
REMARK   44  A    between atoms: _114  and  _115
REMARK   45  A    between atoms: _118  and  _120
REMARK   46  A    between atoms: _120  and  _121
REMARK   47  A    between atoms: _120  and  _123
REMARK   48  A    between atoms: _123  and  _124
REMARK   49  A    between atoms: _127  and  _129
REMARK   50  A    between atoms: _129  and  _130
REMARK   51  A    between atoms: _129  and  _132
REMARK   52  A    between atoms: _132  and  _133
REMARK   53  A    between atoms: _136  and  _138
REMARK   54  A    between atoms: _138  and  _139
REMARK   55  A    between atoms: _138  and  _141
REMARK   56  A    between atoms: _141  and  _142
REMARK   57  A    between atoms: _145  and  _147
REMARK   58  A    between atoms: _147  and  _148
REMARK   59  A    between atoms: _147  and  _150
REMARK   60  A    between atoms: _150  and  _151
REMARK   61  A    between atoms: _156  and  _157
REMARK   62  A    between atoms: _159  and  _161
REMARK   63  A    between atoms: _161  and  _162
REMARK   64  A    between atoms: _161  and  _164
REMARK   65  A    between atoms: _164  and  _165
REMARK   66  A    between atoms: _170  and  _171
REMARK   67  A    between atoms: _173  and  _175
REMARK   68  A    between atoms: _175  and  _176
REMARK   69  A    between atoms: _175  and  _178
REMARK   70  A    between atoms: _178  and  _179
REMARK   71  A    between atoms: _181  and  _183
REMARK   72  A    between atoms: _183  and  _184
REMARK   73  A    between atoms: _183  and  _186
REMARK   74  A    between atoms: _186  and  _187
REMARK   75  A    between atoms: _187  and  _188
REMARK   76  A    between atoms: _188  and  _189
REMARK   77  A    between atoms: _198  and  _200
REMARK   78  A    between atoms: _200  and  _201
REMARK   79  A    between atoms: _200  and  _203
REMARK   80  A    between atoms: _203  and  _204
REMARK   81  A    between atoms: _204  and  _205
REMARK   82  A    between atoms: _210  and  _212
REMARK   83  A    between atoms: _212  and  _213
REMARK   84  A    between atoms: _212  and  _215
REMARK   85  A    between atoms: _215  and  _216
REMARK   86  A    between atoms: _219  and  _221
REMARK   87  A    between atoms: _221  and  _222
REMARK   88  A    between atoms: _221  and  _224
REMARK   89  A    between atoms: _224  and  _225
REMARK   90  A    between atoms: _230  and  _232
REMARK   91  A    between atoms: _232  and  _233
REMARK   92  A    between atoms: _232  and  _235
REMARK   93  A    between atoms: _235  and  _236
REMARK   94  A    between atoms: _241  and  _243
REMARK   95  A    between atoms: _243  and  _244
REMARK   96  A    between atoms: _243  and  _246
REMARK   97  A    between atoms: _246  and  _247
REMARK   98  A    between atoms: _252  and  _253
REMARK   99  A    between atoms: _255  and  _257
REMARK  100  A    between atoms: _257  and  _258
REMARK  101  A    between atoms: _257  and  _260
REMARK  102  A    between atoms: _260  and  _261
REMARK  103  A    between atoms: _266  and  _268
REMARK  104  A    between atoms: _268  and  _269
REMARK  105  A    between atoms: _268  and  _271
REMARK  106  A    between atoms: _271  and  _272
REMARK  107  A    between atoms: _274  and  _276
REMARK  108  A    between atoms: _276  and  _277
REMARK  109  A    between atoms: _276  and  _279
REMARK  110  A    between atoms: _279  and  _280
REMARK  111  A    between atoms: _283  and  _285
REMARK  112  A    between atoms: _285  and  _286
REMARK  113  A    between atoms: _285  and  _288
REMARK  114  A    between atoms: _288  and  _289
REMARK  115  A    between atoms: _292  and  _294
REMARK  116  A    between atoms: _294  and  _295
REMARK  117  A    between atoms: _294  and  _297
REMARK  118  A    between atoms: _297  and  _298
REMARK  119  A    between atoms: _304  and  _306
REMARK  120  A    between atoms: _306  and  _307
REMARK  121  A    between atoms: _306  and  _309
REMARK  122  A    between atoms: _309  and  _310
REMARK                            x       y       z     vdW  Elec       q    Type
REMARK                         _______ _______ _______ _____ _____    ______ ____
ROOT
ATOM      1  O   HOH     1       8.189 -15.026 -39.250  0.00  0.00    +0.000 OA
ENDROOT
TORSDOF 0
REMARK  Name = ../refined-set-2016/4lov/4lov_pocket.pdb
REMARK  122 active torsions:
REMARK  status: ('A' for Active; 'I' for Inactive)
REMARK    1  A    between atoms: _1  and  _5
REMARK    2  A    between atoms: _5  and  _6
REMARK    3  A    between atoms: _5  and  _8
REMARK    4  A    between atoms: _6  and  _7
REMARK    5  A    between atoms: _6  and  _15
REMARK    6  A    between atoms: _8  and  _9
REMARK    7  A    between atoms: _15  and  _17
REMARK    8  A    between atoms: _17  and  _18
REMARK    9  A    between atoms: _22  and  _23
REMARK   10  A    between atoms: _28  and  _30
REMARK   11  A    between atoms: _30  and  _31
REMARK   12  A    between atoms: _30  and  _33
REMARK   13  A    between atoms: _33  and  _34
REMARK   14  A    between atoms: _37  and  _39
REMARK   15  A    between atoms: _39  and  _40
REMARK   16  A    between atoms: _42  and  _44
REMARK   17  A    between atoms: _44  and  _45
REMARK   18  A    between atoms: _47  and  _49
REMARK   19  A    between atoms: _49  and  _50
REMARK   20  A    between atoms: _49  and  _52
REMARK   21  A    between atoms: _52  and  _53
REMARK   22  A    between atoms: _58  and  _60
REMARK   23  A    between atoms: _60  and  _61
REMARK   24  A    between atoms: _60  and  _63
REMARK   25  A    between atoms: _63  and  _64
REMARK   26  A    between atoms: _69  and  _71
REMARK   27  A    between atoms: _71  and  _72
REMARK   28  A    between atoms: _71  and  _74
REMARK   29  A    between atoms: _74  and  _75
REMARK   30  A    between atoms: _78  and  _80
REMARK   31  A    between atoms: _80  and  _81
REMARK   32  A    between atoms: _80  and  _83
REMARK   33  A    between atoms: _83  and  _84
REMARK   34  A    between atoms: _89  and  _90
REMARK   35  A    between atoms: _93  and  _94
REMARK   36  A    between atoms: _99  and  _101
REMARK   37  A    between atoms: _101  and  _102
REMARK   38  A    between atoms: _101  and  _104
REMARK   39  A    between atoms: _104  and  _105
REMARK   40  A    between atoms: _105  and  _106
REMARK   41  A    between atoms: _109  and  _111
REMARK   42  A    between atoms: _111  and  _112
REMARK   43  A    between atoms: _111  and  _114
REMARK   44  A    between atoms: _114  and  _115
REMARK   45  A    between atoms: _118  and  _120
REMARK   46  A    between atoms: _120  and  _121
REMARK   47  A    between atoms: _120  and  _123
REMARK   48  A    between atoms: _123  and  _124
REMARK   49  A    between atoms: _127  and  _129
REMARK   50  A    between atoms: _129  and  _130
REMARK   51  A    between atoms: _129  and  _132
REMARK   52  A    between atoms: _132  and  _133
REMARK   53  A    between atoms: _136  and  _138
REMARK   54  A    between atoms: _138  and  _139
REMARK   55  A    between atoms: _138  and  _141
REMARK   56  A    between atoms: _141  and  _142
REMARK   57  A    between atoms: _145  and  _147
REMARK   58  A    between atoms: _147  and  _148
REMARK   59  A    between atoms: _147  and  _150
REMARK   60  A    between atoms: _150  and  _151
REMARK   61  A    between atoms: _156  and  _157
REMARK   62  A    between atoms: _159  and  _161
REMARK   63  A    between atoms: _161  and  _162
REMARK   64  A    between atoms: _161  and  _164
REMARK   65  A    between atoms: _164  and  _165
REMARK   66  A    between atoms: _170  and  _171
REMARK   67  A    between atoms: _173  and  _175
REMARK   68  A    between atoms: _175  and  _176
REMARK   69  A    between atoms: _175  and  _178
REMARK   70  A    between atoms: _178  and  _179
REMARK   71  A    between atoms: _181  and  _183
REMARK   72  A    between atoms: _183  and  _184
REMARK   73  A    between atoms: _183  and  _186
REMARK   74  A    between atoms: _186  and  _187
REMARK   75  A    between atoms: _187  and  _188
REMARK   76  A    between atoms: _188  and  _189
REMARK   77  A    between atoms: _198  and  _200
REMARK   78  A    between atoms: _200  and  _201
REMARK   79  A    between atoms: _200  and  _203
REMARK   80  A    between atoms: _203  and  _204
REMARK   81  A    between atoms: _204  and  _205
REMARK   82  A    between atoms: _210  and  _212
REMARK   83  A    between atoms: _212  and  _213
REMARK   84  A    between atoms: _212  and  _215
REMARK   85  A    between atoms: _215  and  _216
REMARK   86  A    between atoms: _219  and  _221
REMARK   87  A    between atoms: _221  and  _222
REMARK   88  A    between atoms: _221  and  _224
REMARK   89  A    between atoms: _224  and  _225
REMARK   90  A    between atoms: _230  and  _232
REMARK   91  A    between atoms: _232  and  _233
REMARK   92  A    between atoms: _232  and  _235
REMARK   93  A    between atoms: _235  and  _236
REMARK   94  A    between atoms: _241  and  _243
REMARK   95  A    between atoms: _243  and  _244
REMARK   96  A    between atoms: _243  and  _246
REMARK   97  A    between atoms: _246  and  _247
REMARK   98  A    between atoms: _252  and  _253
REMARK   99  A    between atoms: _255  and  _257
REMARK  100  A    between atoms: _257  and  _258
REMARK  101  A    between atoms: _257  and  _260
REMARK  102  A    between atoms: _260  and  _261
REMARK  103  A    between atoms: _266  and  _268
REMARK  104  A    between atoms: _268  and  _269
REMARK  105  A    between atoms: _268  and  _271
REMARK  106  A    between atoms: _271  and  _272
REMARK  107  A    between atoms: _274  and  _276
REMARK  108  A    between atoms: _276  and  _277
REMARK  109  A    between atoms: _276  and  _279
REMARK  110  A    between atoms: _279  and  _280
REMARK  111  A    between atoms: _283  and  _285
REMARK  112  A    between atoms: _285  and  _286
REMARK  113  A    between atoms: _285  and  _288
REMARK  114  A    between atoms: _288  and  _289
REMARK  115  A    between atoms: _292  and  _294
REMARK  116  A    between atoms: _294  and  _295
REMARK  117  A    between atoms: _294  and  _297
REMARK  118  A    between atoms: _297  and  _298
REMARK  119  A    between atoms: _304  and  _306
REMARK  120  A    between atoms: _306  and  _307
REMARK  121  A    between atoms: _306  and  _309
REMARK  122  A    between atoms: _309  and  _310
REMARK                            x       y       z     vdW  Elec       q    Type
REMARK                         _______ _______ _______ _____ _____    ______ ____
ROOT
ATOM      1  O   HOH     1      15.864  -9.602 -41.370  0.00  0.00    +0.000 OA
ENDROOT
TORSDOF 0
REMARK  Name = ../refined-set-2016/4lov/4lov_pocket.pdb
REMARK  122 active torsions:
REMARK  status: ('A' for Active; 'I' for Inactive)
REMARK    1  A    between atoms: _1  and  _5
REMARK    2  A    between atoms: _5  and  _6
REMARK    3  A    between atoms: _5  and  _8
REMARK    4  A    between atoms: _6  and  _7
REMARK    5  A    between atoms: _6  and  _15
REMARK    6  A    between atoms: _8  and  _9
REMARK    7  A    between atoms: _15  and  _17
REMARK    8  A    between atoms: _17  and  _18
REMARK    9  A    between atoms: _22  and  _23
REMARK   10  A    between atoms: _28  and  _30
REMARK   11  A    between atoms: _30  and  _31
REMARK   12  A    between atoms: _30  and  _33
REMARK   13  A    between atoms: _33  and  _34
REMARK   14  A    between atoms: _37  and  _39
REMARK   15  A    between atoms: _39  and  _40
REMARK   16  A    between atoms: _42  and  _44
REMARK   17  A    between atoms: _44  and  _45
REMARK   18  A    between atoms: _47  and  _49
REMARK   19  A    between atoms: _49  and  _50
REMARK   20  A    between atoms: _49  and  _52
REMARK   21  A    between atoms: _52  and  _53
REMARK   22  A    between atoms: _58  and  _60
REMARK   23  A    between atoms: _60  and  _61
REMARK   24  A    between atoms: _60  and  _63
REMARK   25  A    between atoms: _63  and  _64
REMARK   26  A    between atoms: _69  and  _71
REMARK   27  A    between atoms: _71  and  _72
REMARK   28  A    between atoms: _71  and  _74
REMARK   29  A    between atoms: _74  and  _75
REMARK   30  A    between atoms: _78  and  _80
REMARK   31  A    between atoms: _80  and  _81
REMARK   32  A    between atoms: _80  and  _83
REMARK   33  A    between atoms: _83  and  _84
REMARK   34  A    between atoms: _89  and  _90
REMARK   35  A    between atoms: _93  and  _94
REMARK   36  A    between atoms: _99  and  _101
REMARK   37  A    between atoms: _101  and  _102
REMARK   38  A    between atoms: _101  and  _104
REMARK   39  A    between atoms: _104  and  _105
REMARK   40  A    between atoms: _105  and  _106
REMARK   41  A    between atoms: _109  and  _111
REMARK   42  A    between atoms: _111  and  _112
REMARK   43  A    between atoms: _111  and  _114
REMARK   44  A    between atoms: _114  and  _115
REMARK   45  A    between atoms: _118  and  _120
REMARK   46  A    between atoms: _120  and  _121
REMARK   47  A    between atoms: _120  and  _123
REMARK   48  A    between atoms: _123  and  _124
REMARK   49  A    between atoms: _127  and  _129
REMARK   50  A    between atoms: _129  and  _130
REMARK   51  A    between atoms: _129  and  _132
REMARK   52  A    between atoms: _132  and  _133
REMARK   53  A    between atoms: _136  and  _138
REMARK   54  A    between atoms: _138  and  _139
REMARK   55  A    between atoms: _138  and  _141
REMARK   56  A    between atoms: _141  and  _142
REMARK   57  A    between atoms: _145  and  _147
REMARK   58  A    between atoms: _147  and  _148
REMARK   59  A    between atoms: _147  and  _150
REMARK   60  A    between atoms: _150  and  _151
REMARK   61  A    between atoms: _156  and  _157
REMARK   62  A    between atoms: _159  and  _161
REMARK   63  A    between atoms: _161  and  _162
REMARK   64  A    between atoms: _161  and  _164
REMARK   65  A    between atoms: _164  and  _165
REMARK   66  A    between atoms: _170  and  _171
REMARK   67  A    between atoms: _173  and  _175
REMARK   68  A    between atoms: _175  and  _176
REMARK   69  A    between atoms: _175  and  _178
REMARK   70  A    between atoms: _178  and  _179
REMARK   71  A    between atoms: _181  and  _183
REMARK   72  A    between atoms: _183  and  _184
REMARK   73  A    between atoms: _183  and  _186
REMARK   74  A    between atoms: _186  and  _187
REMARK   75  A    between atoms: _187  and  _188
REMARK   76  A    between atoms: _188  and  _189
REMARK   77  A    between atoms: _198  and  _200
REMARK   78  A    between atoms: _200  and  _201
REMARK   79  A    between atoms: _200  and  _203
REMARK   80  A    between atoms: _203  and  _204
REMARK   81  A    between atoms: _204  and  _205
REMARK   82  A    between atoms: _210  and  _212
REMARK   83  A    between atoms: _212  and  _213
REMARK   84  A    between atoms: _212  and  _215
REMARK   85  A    between atoms: _215  and  _216
REMARK   86  A    between atoms: _219  and  _221
REMARK   87  A    between atoms: _221  and  _222
REMARK   88  A    between atoms: _221  and  _224
REMARK   89  A    between atoms: _224  and  _225
REMARK   90  A    between atoms: _230  and  _232
REMARK   91  A    between atoms: _232  and  _233
REMARK   92  A    between atoms: _232  and  _235
REMARK   93  A    between atoms: _235  and  _236
REMARK   94  A    between atoms: _241  and  _243
REMARK   95  A    between atoms: _243  and  _244
REMARK   96  A    between atoms: _243  and  _246
REMARK   97  A    between atoms: _246  and  _247
REMARK   98  A    between atoms: _252  and  _253
REMARK   99  A    between atoms: _255  and  _257
REMARK  100  A    between atoms: _257  and  _258
REMARK  101  A    between atoms: _257  and  _260
REMARK  102  A    between atoms: _260  and  _261
REMARK  103  A    between atoms: _266  and  _268
REMARK  104  A    between atoms: _268  and  _269
REMARK  105  A    between atoms: _268  and  _271
REMARK  106  A    between atoms: _271  and  _272
REMARK  107  A    between atoms: _274  and  _276
REMARK  108  A    between atoms: _276  and  _277
REMARK  109  A    between atoms: _276  and  _279
REMARK  110  A    between atoms: _279  and  _280
REMARK  111  A    between atoms: _283  and  _285
REMARK  112  A    between atoms: _285  and  _286
REMARK  113  A    between atoms: _285  and  _288
REMARK  114  A    between atoms: _288  and  _289
REMARK  115  A    between atoms: _292  and  _294
REMARK  116  A    between atoms: _294  and  _295
REMARK  117  A    between atoms: _294  and  _297
REMARK  118  A    between atoms: _297  and  _298
REMARK  119  A    between atoms: _304  and  _306
REMARK  120  A    between atoms: _306  and  _307
REMARK  121  A    between atoms: _306  and  _309
REMARK  122  A    between atoms: _309  and  _310
REMARK                            x       y       z     vdW  Elec       q    Type
REMARK                         _______ _______ _______ _____ _____    ______ ____
ROOT
ATOM      1  O   HOH     1       2.603 -12.383 -34.389  0.00  0.00    +0.000 OA
ENDROOT
TORSDOF 0
REMARK  Name = ../refined-set-2016/4lov/4lov_pocket.pdb
REMARK  122 active torsions:
REMARK  status: ('A' for Active; 'I' for Inactive)
REMARK    1  A    between atoms: _1  and  _5
REMARK    2  A    between atoms: _5  and  _6
REMARK    3  A    between atoms: _5  and  _8
REMARK    4  A    between atoms: _6  and  _7
REMARK    5  A    between atoms: _6  and  _15
REMARK    6  A    between atoms: _8  and  _9
REMARK    7  A    between atoms: _15  and  _17
REMARK    8  A    between atoms: _17  and  _18
REMARK    9  A    between atoms: _22  and  _23
REMARK   10  A    between atoms: _28  and  _30
REMARK   11  A    between atoms: _30  and  _31
REMARK   12  A    between atoms: _30  and  _33
REMARK   13  A    between atoms: _33  and  _34
REMARK   14  A    between atoms: _37  and  _39
REMARK   15  A    between atoms: _39  and  _40
REMARK   16  A    between atoms: _42  and  _44
REMARK   17  A    between atoms: _44  and  _45
REMARK   18  A    between atoms: _47  and  _49
REMARK   19  A    between atoms: _49  and  _50
REMARK   20  A    between atoms: _49  and  _52
REMARK   21  A    between atoms: _52  and  _53
REMARK   22  A    between atoms: _58  and  _60
REMARK   23  A    between atoms: _60  and  _61
REMARK   24  A    between atoms: _60  and  _63
REMARK   25  A    between atoms: _63  and  _64
REMARK   26  A    between atoms: _69  and  _71
REMARK   27  A    between atoms: _71  and  _72
REMARK   28  A    between atoms: _71  and  _74
REMARK   29  A    between atoms: _74  and  _75
REMARK   30  A    between atoms: _78  and  _80
REMARK   31  A    between atoms: _80  and  _81
REMARK   32  A    between atoms: _80  and  _83
REMARK   33  A    between atoms: _83  and  _84
REMARK   34  A    between atoms: _89  and  _90
REMARK   35  A    between atoms: _93  and  _94
REMARK   36  A    between atoms: _99  and  _101
REMARK   37  A    between atoms: _101  and  _102
REMARK   38  A    between atoms: _101  and  _104
REMARK   39  A    between atoms: _104  and  _105
REMARK   40  A    between atoms: _105  and  _106
REMARK   41  A    between atoms: _109  and  _111
REMARK   42  A    between atoms: _111  and  _112
REMARK   43  A    between atoms: _111  and  _114
REMARK   44  A    between atoms: _114  and  _115
REMARK   45  A    between atoms: _118  and  _120
REMARK   46  A    between atoms: _120  and  _121
REMARK   47  A    between atoms: _120  and  _123
REMARK   48  A    between atoms: _123  and  _124
REMARK   49  A    between atoms: _127  and  _129
REMARK   50  A    between atoms: _129  and  _130
REMARK   51  A    between atoms: _129  and  _132
REMARK   52  A    between atoms: _132  and  _133
REMARK   53  A    between atoms: _136  and  _138
REMARK   54  A    between atoms: _138  and  _139
REMARK   55  A    between atoms: _138  and  _141
REMARK   56  A    between atoms: _141  and  _142
REMARK   57  A    between atoms: _145  and  _147
REMARK   58  A    between atoms: _147  and  _148
REMARK   59  A    between atoms: _147  and  _150
REMARK   60  A    between atoms: _150  and  _151
REMARK   61  A    between atoms: _156  and  _157
REMARK   62  A    between atoms: _159  and  _161
REMARK   63  A    between atoms: _161  and  _162
REMARK   64  A    between atoms: _161  and  _164
REMARK   65  A    between atoms: _164  and  _165
REMARK   66  A    between atoms: _170  and  _171
REMARK   67  A    between atoms: _173  and  _175
REMARK   68  A    between atoms: _175  and  _176
REMARK   69  A    between atoms: _175  and  _178
REMARK   70  A    between atoms: _178  and  _179
REMARK   71  A    between atoms: _181  and  _183
REMARK   72  A    between atoms: _183  and  _184
REMARK   73  A    between atoms: _183  and  _186
REMARK   74  A    between atoms: _186  and  _187
REMARK   75  A    between atoms: _187  and  _188
REMARK   76  A    between atoms: _188  and  _189
REMARK   77  A    between atoms: _198  and  _200
REMARK   78  A    between atoms: _200  and  _201
REMARK   79  A    between atoms: _200  and  _203
REMARK   80  A    between atoms: _203  and  _204
REMARK   81  A    between atoms: _204  and  _205
REMARK   82  A    between atoms: _210  and  _212
REMARK   83  A    between atoms: _212  and  _213
REMARK   84  A    between atoms: _212  and  _215
REMARK   85  A    between atoms: _215  and  _216
REMARK   86  A    between atoms: _219  and  _221
REMARK   87  A    between atoms: _221  and  _222
REMARK   88  A    between atoms: _221  and  _224
REMARK   89  A    between atoms: _224  and  _225
REMARK   90  A    between atoms: _230  and  _232
REMARK   91  A    between atoms: _232  and  _233
REMARK   92  A    between atoms: _232  and  _235
REMARK   93  A    between atoms: _235  and  _236
REMARK   94  A    between atoms: _241  and  _243
REMARK   95  A    between atoms: _243  and  _244
REMARK   96  A    between atoms: _243  and  _246
REMARK   97  A    between atoms: _246  and  _247
REMARK   98  A    between atoms: _252  and  _253
REMARK   99  A    between atoms: _255  and  _257
REMARK  100  A    between atoms: _257  and  _258
REMARK  101  A    between atoms: _257  and  _260
REMARK  102  A    between atoms: _260  and  _261
REMARK  103  A    between atoms: _266  and  _268
REMARK  104  A    between atoms: _268  and  _269
REMARK  105  A    between atoms: _268  and  _271
REMARK  106  A    between atoms: _271  and  _272
REMARK  107  A    between atoms: _274  and  _276
REMARK  108  A    between atoms: _276  and  _277
REMARK  109  A    between atoms: _276  and  _279
REMARK  110  A    between atoms: _279  and  _280
REMARK  111  A    between atoms: _283  and  _285
REMARK  112  A    between atoms: _285  and  _286
REMARK  113  A    between atoms: _285  and  _288
REMARK  114  A    between atoms: _288  and  _289
REMARK  115  A    between atoms: _292  and  _294
REMARK  116  A    between atoms: _294  and  _295
REMARK  117  A    between atoms: _294  and  _297
REMARK  118  A    between atoms: _297  and  _298
REMARK  119  A    between atoms: _304  and  _306
REMARK  120  A    between atoms: _306  and  _307
REMARK  121  A    between atoms: _306  and  _309
REMARK  122  A    between atoms: _309  and  _310
REMARK                            x       y       z     vdW  Elec       q    Type
REMARK                         _______ _______ _______ _____ _____    ______ ____
ROOT
ATOM      1  O   HOH     1       7.455 -10.148 -45.406  0.00  0.00    +0.000 OA
ENDROOT
TORSDOF 0
REMARK  Name = ../refined-set-2016/4lov/4lov_pocket.pdb
REMARK  122 active torsions:
REMARK  status: ('A' for Active; 'I' for Inactive)
REMARK    1  A    between atoms: _1  and  _5
REMARK    2  A    between atoms: _5  and  _6
REMARK    3  A    between atoms: _5  and  _8
REMARK    4  A    between atoms: _6  and  _7
REMARK    5  A    between atoms: _6  and  _15
REMARK    6  A    between atoms: _8  and  _9
REMARK    7  A    between atoms: _15  and  _17
REMARK    8  A    between atoms: _17  and  _18
REMARK    9  A    between atoms: _22  and  _23
REMARK   10  A    between atoms: _28  and  _30
REMARK   11  A    between atoms: _30  and  _31
REMARK   12  A    between atoms: _30  and  _33
REMARK   13  A    between atoms: _33  and  _34
REMARK   14  A    between atoms: _37  and  _39
REMARK   15  A    between atoms: _39  and  _40
REMARK   16  A    between atoms: _42  and  _44
REMARK   17  A    between atoms: _44  and  _45
REMARK   18  A    between atoms: _47  and  _49
REMARK   19  A    between atoms: _49  and  _50
REMARK   20  A    between atoms: _49  and  _52
REMARK   21  A    between atoms: _52  and  _53
REMARK   22  A    between atoms: _58  and  _60
REMARK   23  A    between atoms: _60  and  _61
REMARK   24  A    between atoms: _60  and  _63
REMARK   25  A    between atoms: _63  and  _64
REMARK   26  A    between atoms: _69  and  _71
REMARK   27  A    between atoms: _71  and  _72
REMARK   28  A    between atoms: _71  and  _74
REMARK   29  A    between atoms: _74  and  _75
REMARK   30  A    between atoms: _78  and  _80
REMARK   31  A    between atoms: _80  and  _81
REMARK   32  A    between atoms: _80  and  _83
REMARK   33  A    between atoms: _83  and  _84
REMARK   34  A    between atoms: _89  and  _90
REMARK   35  A    between atoms: _93  and  _94
REMARK   36  A    between atoms: _99  and  _101
REMARK   37  A    between atoms: _101  and  _102
REMARK   38  A    between atoms: _101  and  _104
REMARK   39  A    between atoms: _104  and  _105
REMARK   40  A    between atoms: _105  and  _106
REMARK   41  A    between atoms: _109  and  _111
REMARK   42  A    between atoms: _111  and  _112
REMARK   43  A    between atoms: _111  and  _114
REMARK   44  A    between atoms: _114  and  _115
REMARK   45  A    between atoms: _118  and  _120
REMARK   46  A    between atoms: _120  and  _121
REMARK   47  A    between atoms: _120  and  _123
REMARK   48  A    between atoms: _123  and  _124
REMARK   49  A    between atoms: _127  and  _129
REMARK   50  A    between atoms: _129  and  _130
REMARK   51  A    between atoms: _129  and  _132
REMARK   52  A    between atoms: _132  and  _133
REMARK   53  A    between atoms: _136  and  _138
REMARK   54  A    between atoms: _138  and  _139
REMARK   55  A    between atoms: _138  and  _141
REMARK   56  A    between atoms: _141  and  _142
REMARK   57  A    between atoms: _145  and  _147
REMARK   58  A    between atoms: _147  and  _148
REMARK   59  A    between atoms: _147  and  _150
REMARK   60  A    between atoms: _150  and  _151
REMARK   61  A    between atoms: _156  and  _157
REMARK   62  A    between atoms: _159  and  _161
REMARK   63  A    between atoms: _161  and  _162
REMARK   64  A    between atoms: _161  and  _164
REMARK   65  A    between atoms: _164  and  _165
REMARK   66  A    between atoms: _170  and  _171
REMARK   67  A    between atoms: _173  and  _175
REMARK   68  A    between atoms: _175  and  _176
REMARK   69  A    between atoms: _175  and  _178
REMARK   70  A    between atoms: _178  and  _179
REMARK   71  A    between atoms: _181  and  _183
REMARK   72  A    between atoms: _183  and  _184
REMARK   73  A    between atoms: _183  and  _186
REMARK   74  A    between atoms: _186  and  _187
REMARK   75  A    between atoms: _187  and  _188
REMARK   76  A    between atoms: _188  and  _189
REMARK   77  A    between atoms: _198  and  _200
REMARK   78  A    between atoms: _200  and  _201
REMARK   79  A    between atoms: _200  and  _203
REMARK   80  A    between atoms: _203  and  _204
REMARK   81  A    between atoms: _204  and  _205
REMARK   82  A    between atoms: _210  and  _212
REMARK   83  A    between atoms: _212  and  _213
REMARK   84  A    between atoms: _212  and  _215
REMARK   85  A    between atoms: _215  and  _216
REMARK   86  A    between atoms: _219  and  _221
REMARK   87  A    between atoms: _221  and  _222
REMARK   88  A    between atoms: _221  and  _224
REMARK   89  A    between atoms: _224  and  _225
REMARK   90  A    between atoms: _230  and  _232
REMARK   91  A    between atoms: _232  and  _233
REMARK   92  A    between atoms: _232  and  _235
REMARK   93  A    between atoms: _235  and  _236
REMARK   94  A    between atoms: _241  and  _243
REMARK   95  A    between atoms: _243  and  _244
REMARK   96  A    between atoms: _243  and  _246
REMARK   97  A    between atoms: _246  and  _247
REMARK   98  A    between atoms: _252  and  _253
REMARK   99  A    between atoms: _255  and  _257
REMARK  100  A    between atoms: _257  and  _258
REMARK  101  A    between atoms: _257  and  _260
REMARK  102  A    between atoms: _260  and  _261
REMARK  103  A    between atoms: _266  and  _268
REMARK  104  A    between atoms: _268  and  _269
REMARK  105  A    between atoms: _268  and  _271
REMARK  106  A    between atoms: _271  and  _272
REMARK  107  A    between atoms: _274  and  _276
REMARK  108  A    between atoms: _276  and  _277
REMARK  109  A    between atoms: _276  and  _279
REMARK  110  A    between atoms: _279  and  _280
REMARK  111  A    between atoms: _283  and  _285
REMARK  112  A    between atoms: _285  and  _286
REMARK  113  A    between atoms: _285  and  _288
REMARK  114  A    between atoms: _288  and  _289
REMARK  115  A    between atoms: _292  and  _294
REMARK  116  A    between atoms: _294  and  _295
REMARK  117  A    between atoms: _294  and  _297
REMARK  118  A    between atoms: _297  and  _298
REMARK  119  A    between atoms: _304  and  _306
REMARK  120  A    between atoms: _306  and  _307
REMARK  121  A    between atoms: _306  and  _309
REMARK  122  A    between atoms: _309  and  _310
REMARK                            x       y       z     vdW  Elec       q    Type
REMARK                         _______ _______ _______ _____ _____    ______ ____
ROOT
ATOM      1  O   HOH     1      16.310  -5.727 -36.508  0.00  0.00    +0.000 OA
ENDROOT
TORSDOF 0
REMARK  Name = ../refined-set-2016/4lov/4lov_pocket.pdb
REMARK  122 active torsions:
REMARK  status: ('A' for Active; 'I' for Inactive)
REMARK    1  A    between atoms: _1  and  _5
REMARK    2  A    between atoms: _5  and  _6
REMARK    3  A    between atoms: _5  and  _8
REMARK    4  A    between atoms: _6  and  _7
REMARK    5  A    between atoms: _6  and  _15
REMARK    6  A    between atoms: _8  and  _9
REMARK    7  A    between atoms: _15  and  _17
REMARK    8  A    between atoms: _17  and  _18
REMARK    9  A    between atoms: _22  and  _23
REMARK   10  A    between atoms: _28  and  _30
REMARK   11  A    between atoms: _30  and  _31
REMARK   12  A    between atoms: _30  and  _33
REMARK   13  A    between atoms: _33  and  _34
REMARK   14  A    between atoms: _37  and  _39
REMARK   15  A    between atoms: _39  and  _40
REMARK   16  A    between atoms: _42  and  _44
REMARK   17  A    between atoms: _44  and  _45
REMARK   18  A    between atoms: _47  and  _49
REMARK   19  A    between atoms: _49  and  _50
REMARK   20  A    between atoms: _49  and  _52
REMARK   21  A    between atoms: _52  and  _53
REMARK   22  A    between atoms: _58  and  _60
REMARK   23  A    between atoms: _60  and  _61
REMARK   24  A    between atoms: _60  and  _63
REMARK   25  A    between atoms: _63  and  _64
REMARK   26  A    between atoms: _69  and  _71
REMARK   27  A    between atoms: _71  and  _72
REMARK   28  A    between atoms: _71  and  _74
REMARK   29  A    between atoms: _74  and  _75
REMARK   30  A    between atoms: _78  and  _80
REMARK   31  A    between atoms: _80  and  _81
REMARK   32  A    between atoms: _80  and  _83
REMARK   33  A    between atoms: _83  and  _84
REMARK   34  A    between atoms: _89  and  _90
REMARK   35  A    between atoms: _93  and  _94
REMARK   36  A    between atoms: _99  and  _101
REMARK   37  A    between atoms: _101  and  _102
REMARK   38  A    between atoms: _101  and  _104
REMARK   39  A    between atoms: _104  and  _105
REMARK   40  A    between atoms: _105  and  _106
REMARK   41  A    between atoms: _109  and  _111
REMARK   42  A    between atoms: _111  and  _112
REMARK   43  A    between atoms: _111  and  _114
REMARK   44  A    between atoms: _114  and  _115
REMARK   45  A    between atoms: _118  and  _120
REMARK   46  A    between atoms: _120  and  _121
REMARK   47  A    between atoms: _120  and  _123
REMARK   48  A    between atoms: _123  and  _124
REMARK   49  A    between atoms: _127  and  _129
REMARK   50  A    between atoms: _129  and  _130
REMARK   51  A    between atoms: _129  and  _132
REMARK   52  A    between atoms: _132  and  _133
REMARK   53  A    between atoms: _136  and  _138
REMARK   54  A    between atoms: _138  and  _139
REMARK   55  A    between atoms: _138  and  _141
REMARK   56  A    between atoms: _141  and  _142
REMARK   57  A    between atoms: _145  and  _147
REMARK   58  A    between atoms: _147  and  _148
REMARK   59  A    between atoms: _147  and  _150
REMARK   60  A    between atoms: _150  and  _151
REMARK   61  A    between atoms: _156  and  _157
REMARK   62  A    between atoms: _159  and  _161
REMARK   63  A    between atoms: _161  and  _162
REMARK   64  A    between atoms: _161  and  _164
REMARK   65  A    between atoms: _164  and  _165
REMARK   66  A    between atoms: _170  and  _171
REMARK   67  A    between atoms: _173  and  _175
REMARK   68  A    between atoms: _175  and  _176
REMARK   69  A    between atoms: _175  and  _178
REMARK   70  A    between atoms: _178  and  _179
REMARK   71  A    between atoms: _181  and  _183
REMARK   72  A    between atoms: _183  and  _184
REMARK   73  A    between atoms: _183  and  _186
REMARK   74  A    between atoms: _186  and  _187
REMARK   75  A    between atoms: _187  and  _188
REMARK   76  A    between atoms: _188  and  _189
REMARK   77  A    between atoms: _198  and  _200
REMARK   78  A    between atoms: _200  and  _201
REMARK   79  A    between atoms: _200  and  _203
REMARK   80  A    between atoms: _203  and  _204
REMARK   81  A    between atoms: _204  and  _205
REMARK   82  A    between atoms: _210  and  _212
REMARK   83  A    between atoms: _212  and  _213
REMARK   84  A    between atoms: _212  and  _215
REMARK   85  A    between atoms: _215  and  _216
REMARK   86  A    between atoms: _219  and  _221
REMARK   87  A    between atoms: _221  and  _222
REMARK   88  A    between atoms: _221  and  _224
REMARK   89  A    between atoms: _224  and  _225
REMARK   90  A    between atoms: _230  and  _232
REMARK   91  A    between atoms: _232  and  _233
REMARK   92  A    between atoms: _232  and  _235
REMARK   93  A    between atoms: _235  and  _236
REMARK   94  A    between atoms: _241  and  _243
REMARK   95  A    between atoms: _243  and  _244
REMARK   96  A    between atoms: _243  and  _246
REMARK   97  A    between atoms: _246  and  _247
REMARK   98  A    between atoms: _252  and  _253
REMARK   99  A    between atoms: _255  and  _257
REMARK  100  A    between atoms: _257  and  _258
REMARK  101  A    between atoms: _257  and  _260
REMARK  102  A    between atoms: _260  and  _261
REMARK  103  A    between atoms: _266  and  _268
REMARK  104  A    between atoms: _268  and  _269
REMARK  105  A    between atoms: _268  and  _271
REMARK  106  A    between atoms: _271  and  _272
REMARK  107  A    between atoms: _274  and  _276
REMARK  108  A    between atoms: _276  and  _277
REMARK  109  A    between atoms: _276  and  _279
REMARK  110  A    between atoms: _279  and  _280
REMARK  111  A    between atoms: _283  and  _285
REMARK  112  A    between atoms: _285  and  _286
REMARK  113  A    between atoms: _285  and  _288
REMARK  114  A    between atoms: _288  and  _289
REMARK  115  A    between atoms: _292  and  _294
REMARK  116  A    between atoms: _294  and  _295
REMARK  117  A    between atoms: _294  and  _297
REMARK  118  A    between atoms: _297  and  _298
REMARK  119  A    between atoms: _304  and  _306
REMARK  120  A    between atoms: _306  and  _307
REMARK  121  A    between atoms: _306  and  _309
REMARK  122  A    between atoms: _309  and  _310
REMARK                            x       y       z     vdW  Elec       q    Type
REMARK                         _______ _______ _______ _____ _____    ______ ____
ROOT
ATOM      1  O   HOH     1      17.719  -7.324 -38.218  0.00  0.00    +0.000 OA
ENDROOT
TORSDOF 0
REMARK  Name = ../refined-set-2016/4lov/4lov_pocket.pdb
REMARK  122 active torsions:
REMARK  status: ('A' for Active; 'I' for Inactive)
REMARK    1  A    between atoms: _1  and  _5
REMARK    2  A    between atoms: _5  and  _6
REMARK    3  A    between atoms: _5  and  _8
REMARK    4  A    between atoms: _6  and  _7
REMARK    5  A    between atoms: _6  and  _15
REMARK    6  A    between atoms: _8  and  _9
REMARK    7  A    between atoms: _15  and  _17
REMARK    8  A    between atoms: _17  and  _18
REMARK    9  A    between atoms: _22  and  _23
REMARK   10  A    between atoms: _28  and  _30
REMARK   11  A    between atoms: _30  and  _31
REMARK   12  A    between atoms: _30  and  _33
REMARK   13  A    between atoms: _33  and  _34
REMARK   14  A    between atoms: _37  and  _39
REMARK   15  A    between atoms: _39  and  _40
REMARK   16  A    between atoms: _42  and  _44
REMARK   17  A    between atoms: _44  and  _45
REMARK   18  A    between atoms: _47  and  _49
REMARK   19  A    between atoms: _49  and  _50
REMARK   20  A    between atoms: _49  and  _52
REMARK   21  A    between atoms: _52  and  _53
REMARK   22  A    between atoms: _58  and  _60
REMARK   23  A    between atoms: _60  and  _61
REMARK   24  A    between atoms: _60  and  _63
REMARK   25  A    between atoms: _63  and  _64
REMARK   26  A    between atoms: _69  and  _71
REMARK   27  A    between atoms: _71  and  _72
REMARK   28  A    between atoms: _71  and  _74
REMARK   29  A    between atoms: _74  and  _75
REMARK   30  A    between atoms: _78  and  _80
REMARK   31  A    between atoms: _80  and  _81
REMARK   32  A    between atoms: _80  and  _83
REMARK   33  A    between atoms: _83  and  _84
REMARK   34  A    between atoms: _89  and  _90
REMARK   35  A    between atoms: _93  and  _94
REMARK   36  A    between atoms: _99  and  _101
REMARK   37  A    between atoms: _101  and  _102
REMARK   38  A    between atoms: _101  and  _104
REMARK   39  A    between atoms: _104  and  _105
REMARK   40  A    between atoms: _105  and  _106
REMARK   41  A    between atoms: _109  and  _111
REMARK   42  A    between atoms: _111  and  _112
REMARK   43  A    between atoms: _111  and  _114
REMARK   44  A    between atoms: _114  and  _115
REMARK   45  A    between atoms: _118  and  _120
REMARK   46  A    between atoms: _120  and  _121
REMARK   47  A    between atoms: _120  and  _123
REMARK   48  A    between atoms: _123  and  _124
REMARK   49  A    between atoms: _127  and  _129
REMARK   50  A    between atoms: _129  and  _130
REMARK   51  A    between atoms: _129  and  _132
REMARK   52  A    between atoms: _132  and  _133
REMARK   53  A    between atoms: _136  and  _138
REMARK   54  A    between atoms: _138  and  _139
REMARK   55  A    between atoms: _138  and  _141
REMARK   56  A    between atoms: _141  and  _142
REMARK   57  A    between atoms: _145  and  _147
REMARK   58  A    between atoms: _147  and  _148
REMARK   59  A    between atoms: _147  and  _150
REMARK   60  A    between atoms: _150  and  _151
REMARK   61  A    between atoms: _156  and  _157
REMARK   62  A    between atoms: _159  and  _161
REMARK   63  A    between atoms: _161  and  _162
REMARK   64  A    between atoms: _161  and  _164
REMARK   65  A    between atoms: _164  and  _165
REMARK   66  A    between atoms: _170  and  _171
REMARK   67  A    between atoms: _173  and  _175
REMARK   68  A    between atoms: _175  and  _176
REMARK   69  A    between atoms: _175  and  _178
REMARK   70  A    between atoms: _178  and  _179
REMARK   71  A    between atoms: _181  and  _183
REMARK   72  A    between atoms: _183  and  _184
REMARK   73  A    between atoms: _183  and  _186
REMARK   74  A    between atoms: _186  and  _187
REMARK   75  A    between atoms: _187  and  _188
REMARK   76  A    between atoms: _188  and  _189
REMARK   77  A    between atoms: _198  and  _200
REMARK   78  A    between atoms: _200  and  _201
REMARK   79  A    between atoms: _200  and  _203
REMARK   80  A    between atoms: _203  and  _204
REMARK   81  A    between atoms: _204  and  _205
REMARK   82  A    between atoms: _210  and  _212
REMARK   83  A    between atoms: _212  and  _213
REMARK   84  A    between atoms: _212  and  _215
REMARK   85  A    between atoms: _215  and  _216
REMARK   86  A    between atoms: _219  and  _221
REMARK   87  A    between atoms: _221  and  _222
REMARK   88  A    between atoms: _221  and  _224
REMARK   89  A    between atoms: _224  and  _225
REMARK   90  A    between atoms: _230  and  _232
REMARK   91  A    between atoms: _232  and  _233
REMARK   92  A    between atoms: _232  and  _235
REMARK   93  A    between atoms: _235  and  _236
REMARK   94  A    between atoms: _241  and  _243
REMARK   95  A    between atoms: _243  and  _244
REMARK   96  A    between atoms: _243  and  _246
REMARK   97  A    between atoms: _246  and  _247
REMARK   98  A    between atoms: _252  and  _253
REMARK   99  A    between atoms: _255  and  _257
REMARK  100  A    between atoms: _257  and  _258
REMARK  101  A    between atoms: _257  and  _260
REMARK  102  A    between atoms: _260  and  _261
REMARK  103  A    between atoms: _266  and  _268
REMARK  104  A    between atoms: _268  and  _269
REMARK  105  A    between atoms: _268  and  _271
REMARK  106  A    between atoms: _271  and  _272
REMARK  107  A    between atoms: _274  and  _276
REMARK  108  A    between atoms: _276  and  _277
REMARK  109  A    between atoms: _276  and  _279
REMARK  110  A    between atoms: _279  and  _280
REMARK  111  A    between atoms: _283  and  _285
REMARK  112  A    between atoms: _285  and  _286
REMARK  113  A    between atoms: _285  and  _288
REMARK  114  A    between atoms: _288  and  _289
REMARK  115  A    between atoms: _292  and  _294
REMARK  116  A    between atoms: _294  and  _295
REMARK  117  A    between atoms: _294  and  _297
REMARK  118  A    between atoms: _297  and  _298
REMARK  119  A    between atoms: _304  and  _306
REMARK  120  A    between atoms: _306  and  _307
REMARK  121  A    between atoms: _306  and  _309
REMARK  122  A    between atoms: _309  and  _310
REMARK                            x       y       z     vdW  Elec       q    Type
REMARK                         _______ _______ _______ _____ _____    ______ ____
ROOT
ATOM      1  O   HOH     1      10.011 -10.941 -45.441  0.00  0.00    +0.000 OA
ENDROOT
TORSDOF 0
REMARK  Name = ../refined-set-2016/4lov/4lov_pocket.pdb
REMARK  122 active torsions:
REMARK  status: ('A' for Active; 'I' for Inactive)
REMARK    1  A    between atoms: _1  and  _5
REMARK    2  A    between atoms: _5  and  _6
REMARK    3  A    between atoms: _5  and  _8
REMARK    4  A    between atoms: _6  and  _7
REMARK    5  A    between atoms: _6  and  _15
REMARK    6  A    between atoms: _8  and  _9
REMARK    7  A    between atoms: _15  and  _17
REMARK    8  A    between atoms: _17  and  _18
REMARK    9  A    between atoms: _22  and  _23
REMARK   10  A    between atoms: _28  and  _30
REMARK   11  A    between atoms: _30  and  _31
REMARK   12  A    between atoms: _30  and  _33
REMARK   13  A    between atoms: _33  and  _34
REMARK   14  A    between atoms: _37  and  _39
REMARK   15  A    between atoms: _39  and  _40
REMARK   16  A    between atoms: _42  and  _44
REMARK   17  A    between atoms: _44  and  _45
REMARK   18  A    between atoms: _47  and  _49
REMARK   19  A    between atoms: _49  and  _50
REMARK   20  A    between atoms: _49  and  _52
REMARK   21  A    between atoms: _52  and  _53
REMARK   22  A    between atoms: _58  and  _60
REMARK   23  A    between atoms: _60  and  _61
REMARK   24  A    between atoms: _60  and  _63
REMARK   25  A    between atoms: _63  and  _64
REMARK   26  A    between atoms: _69  and  _71
REMARK   27  A    between atoms: _71  and  _72
REMARK   28  A    between atoms: _71  and  _74
REMARK   29  A    between atoms: _74  and  _75
REMARK   30  A    between atoms: _78  and  _80
REMARK   31  A    between atoms: _80  and  _81
REMARK   32  A    between atoms: _80  and  _83
REMARK   33  A    between atoms: _83  and  _84
REMARK   34  A    between atoms: _89  and  _90
REMARK   35  A    between atoms: _93  and  _94
REMARK   36  A    between atoms: _99  and  _101
REMARK   37  A    between atoms: _101  and  _102
REMARK   38  A    between atoms: _101  and  _104
REMARK   39  A    between atoms: _104  and  _105
REMARK   40  A    between atoms: _105  and  _106
REMARK   41  A    between atoms: _109  and  _111
REMARK   42  A    between atoms: _111  and  _112
REMARK   43  A    between atoms: _111  and  _114
REMARK   44  A    between atoms: _114  and  _115
REMARK   45  A    between atoms: _118  and  _120
REMARK   46  A    between atoms: _120  and  _121
REMARK   47  A    between atoms: _120  and  _123
REMARK   48  A    between atoms: _123  and  _124
REMARK   49  A    between atoms: _127  and  _129
REMARK   50  A    between atoms: _129  and  _130
REMARK   51  A    between atoms: _129  and  _132
REMARK   52  A    between atoms: _132  and  _133
REMARK   53  A    between atoms: _136  and  _138
REMARK   54  A    between atoms: _138  and  _139
REMARK   55  A    between atoms: _138  and  _141
REMARK   56  A    between atoms: _141  and  _142
REMARK   57  A    between atoms: _145  and  _147
REMARK   58  A    between atoms: _147  and  _148
REMARK   59  A    between atoms: _147  and  _150
REMARK   60  A    between atoms: _150  and  _151
REMARK   61  A    between atoms: _156  and  _157
REMARK   62  A    between atoms: _159  and  _161
REMARK   63  A    between atoms: _161  and  _162
REMARK   64  A    between atoms: _161  and  _164
REMARK   65  A    between atoms: _164  and  _165
REMARK   66  A    between atoms: _170  and  _171
REMARK   67  A    between atoms: _173  and  _175
REMARK   68  A    between atoms: _175  and  _176
REMARK   69  A    between atoms: _175  and  _178
REMARK   70  A    between atoms: _178  and  _179
REMARK   71  A    between atoms: _181  and  _183
REMARK   72  A    between atoms: _183  and  _184
REMARK   73  A    between atoms: _183  and  _186
REMARK   74  A    between atoms: _186  and  _187
REMARK   75  A    between atoms: _187  and  _188
REMARK   76  A    between atoms: _188  and  _189
REMARK   77  A    between atoms: _198  and  _200
REMARK   78  A    between atoms: _200  and  _201
REMARK   79  A    between atoms: _200  and  _203
REMARK   80  A    between atoms: _203  and  _204
REMARK   81  A    between atoms: _204  and  _205
REMARK   82  A    between atoms: _210  and  _212
REMARK   83  A    between atoms: _212  and  _213
REMARK   84  A    between atoms: _212  and  _215
REMARK   85  A    between atoms: _215  and  _216
REMARK   86  A    between atoms: _219  and  _221
REMARK   87  A    between atoms: _221  and  _222
REMARK   88  A    between atoms: _221  and  _224
REMARK   89  A    between atoms: _224  and  _225
REMARK   90  A    between atoms: _230  and  _232
REMARK   91  A    between atoms: _232  and  _233
REMARK   92  A    between atoms: _232  and  _235
REMARK   93  A    between atoms: _235  and  _236
REMARK   94  A    between atoms: _241  and  _243
REMARK   95  A    between atoms: _243  and  _244
REMARK   96  A    between atoms: _243  and  _246
REMARK   97  A    between atoms: _246  and  _247
REMARK   98  A    between atoms: _252  and  _253
REMARK   99  A    between atoms: _255  and  _257
REMARK  100  A    between atoms: _257  and  _258
REMARK  101  A    between atoms: _257  and  _260
REMARK  102  A    between atoms: _260  and  _261
REMARK  103  A    between atoms: _266  and  _268
REMARK  104  A    between atoms: _268  and  _269
REMARK  105  A    between atoms: _268  and  _271
REMARK  106  A    between atoms: _271  and  _272
REMARK  107  A    between atoms: _274  and  _276
REMARK  108  A    between atoms: _276  and  _277
REMARK  109  A    between atoms: _276  and  _279
REMARK  110  A    between atoms: _279  and  _280
REMARK  111  A    between atoms: _283  and  _285
REMARK  112  A    between atoms: _285  and  _286
REMARK  113  A    between atoms: _285  and  _288
REMARK  114  A    between atoms: _288  and  _289
REMARK  115  A    between atoms: _292  and  _294
REMARK  116  A    between atoms: _294  and  _295
REMARK  117  A    between atoms: _294  and  _297
REMARK  118  A    between atoms: _297  and  _298
REMARK  119  A    between atoms: _304  and  _306
REMARK  120  A    between atoms: _306  and  _307
REMARK  121  A    between atoms: _306  and  _309
REMARK  122  A    between atoms: _309  and  _310
REMARK                            x       y       z     vdW  Elec       q    Type
REMARK                         _______ _______ _______ _____ _____    ______ ____
ROOT
ATOM      1  O   HOH     1      20.456  -8.885 -35.524  0.00  0.00    +0.000 OA
ENDROOT
TORSDOF 0
REMARK  Name = ../refined-set-2016/4lov/4lov_pocket.pdb
REMARK  122 active torsions:
REMARK  status: ('A' for Active; 'I' for Inactive)
REMARK    1  A    between atoms: _1  and  _5
REMARK    2  A    between atoms: _5  and  _6
REMARK    3  A    between atoms: _5  and  _8
REMARK    4  A    between atoms: _6  and  _7
REMARK    5  A    between atoms: _6  and  _15
REMARK    6  A    between atoms: _8  and  _9
REMARK    7  A    between atoms: _15  and  _17
REMARK    8  A    between atoms: _17  and  _18
REMARK    9  A    between atoms: _22  and  _23
REMARK   10  A    between atoms: _28  and  _30
REMARK   11  A    between atoms: _30  and  _31
REMARK   12  A    between atoms: _30  and  _33
REMARK   13  A    between atoms: _33  and  _34
REMARK   14  A    between atoms: _37  and  _39
REMARK   15  A    between atoms: _39  and  _40
REMARK   16  A    between atoms: _42  and  _44
REMARK   17  A    between atoms: _44  and  _45
REMARK   18  A    between atoms: _47  and  _49
REMARK   19  A    between atoms: _49  and  _50
REMARK   20  A    between atoms: _49  and  _52
REMARK   21  A    between atoms: _52  and  _53
REMARK   22  A    between atoms: _58  and  _60
REMARK   23  A    between atoms: _60  and  _61
REMARK   24  A    between atoms: _60  and  _63
REMARK   25  A    between atoms: _63  and  _64
REMARK   26  A    between atoms: _69  and  _71
REMARK   27  A    between atoms: _71  and  _72
REMARK   28  A    between atoms: _71  and  _74
REMARK   29  A    between atoms: _74  and  _75
REMARK   30  A    between atoms: _78  and  _80
REMARK   31  A    between atoms: _80  and  _81
REMARK   32  A    between atoms: _80  and  _83
REMARK   33  A    between atoms: _83  and  _84
REMARK   34  A    between atoms: _89  and  _90
REMARK   35  A    between atoms: _93  and  _94
REMARK   36  A    between atoms: _99  and  _101
REMARK   37  A    between atoms: _101  and  _102
REMARK   38  A    between atoms: _101  and  _104
REMARK   39  A    between atoms: _104  and  _105
REMARK   40  A    between atoms: _105  and  _106
REMARK   41  A    between atoms: _109  and  _111
REMARK   42  A    between atoms: _111  and  _112
REMARK   43  A    between atoms: _111  and  _114
REMARK   44  A    between atoms: _114  and  _115
REMARK   45  A    between atoms: _118  and  _120
REMARK   46  A    between atoms: _120  and  _121
REMARK   47  A    between atoms: _120  and  _123
REMARK   48  A    between atoms: _123  and  _124
REMARK   49  A    between atoms: _127  and  _129
REMARK   50  A    between atoms: _129  and  _130
REMARK   51  A    between atoms: _129  and  _132
REMARK   52  A    between atoms: _132  and  _133
REMARK   53  A    between atoms: _136  and  _138
REMARK   54  A    between atoms: _138  and  _139
REMARK   55  A    between atoms: _138  and  _141
REMARK   56  A    between atoms: _141  and  _142
REMARK   57  A    between atoms: _145  and  _147
REMARK   58  A    between atoms: _147  and  _148
REMARK   59  A    between atoms: _147  and  _150
REMARK   60  A    between atoms: _150  and  _151
REMARK   61  A    between atoms: _156  and  _157
REMARK   62  A    between atoms: _159  and  _161
REMARK   63  A    between atoms: _161  and  _162
REMARK   64  A    between atoms: _161  and  _164
REMARK   65  A    between atoms: _164  and  _165
REMARK   66  A    between atoms: _170  and  _171
REMARK   67  A    between atoms: _173  and  _175
REMARK   68  A    between atoms: _175  and  _176
REMARK   69  A    between atoms: _175  and  _178
REMARK   70  A    between atoms: _178  and  _179
REMARK   71  A    between atoms: _181  and  _183
REMARK   72  A    between atoms: _183  and  _184
REMARK   73  A    between atoms: _183  and  _186
REMARK   74  A    between atoms: _186  and  _187
REMARK   75  A    between atoms: _187  and  _188
REMARK   76  A    between atoms: _188  and  _189
REMARK   77  A    between atoms: _198  and  _200
REMARK   78  A    between atoms: _200  and  _201
REMARK   79  A    between atoms: _200  and  _203
REMARK   80  A    between atoms: _203  and  _204
REMARK   81  A    between atoms: _204  and  _205
REMARK   82  A    between atoms: _210  and  _212
REMARK   83  A    between atoms: _212  and  _213
REMARK   84  A    between atoms: _212  and  _215
REMARK   85  A    between atoms: _215  and  _216
REMARK   86  A    between atoms: _219  and  _221
REMARK   87  A    between atoms: _221  and  _222
REMARK   88  A    between atoms: _221  and  _224
REMARK   89  A    between atoms: _224  and  _225
REMARK   90  A    between atoms: _230  and  _232
REMARK   91  A    between atoms: _232  and  _233
REMARK   92  A    between atoms: _232  and  _235
REMARK   93  A    between atoms: _235  and  _236
REMARK   94  A    between atoms: _241  and  _243
REMARK   95  A    between atoms: _243  and  _244
REMARK   96  A    between atoms: _243  and  _246
REMARK   97  A    between atoms: _246  and  _247
REMARK   98  A    between atoms: _252  and  _253
REMARK   99  A    between atoms: _255  and  _257
REMARK  100  A    between atoms: _257  and  _258
REMARK  101  A    between atoms: _257  and  _260
REMARK  102  A    between atoms: _260  and  _261
REMARK  103  A    between atoms: _266  and  _268
REMARK  104  A    between atoms: _268  and  _269
REMARK  105  A    between atoms: _268  and  _271
REMARK  106  A    between atoms: _271  and  _272
REMARK  107  A    between atoms: _274  and  _276
REMARK  108  A    between atoms: _276  and  _277
REMARK  109  A    between atoms: _276  and  _279
REMARK  110  A    between atoms: _279  and  _280
REMARK  111  A    between atoms: _283  and  _285
REMARK  112  A    between atoms: _285  and  _286
REMARK  113  A    between atoms: _285  and  _288
REMARK  114  A    between atoms: _288  and  _289
REMARK  115  A    between atoms: _292  and  _294
REMARK  116  A    between atoms: _294  and  _295
REMARK  117  A    between atoms: _294  and  _297
REMARK  118  A    between atoms: _297  and  _298
REMARK  119  A    between atoms: _304  and  _306
REMARK  120  A    between atoms: _306  and  _307
REMARK  121  A    between atoms: _306  and  _309
REMARK  122  A    between atoms: _309  and  _310
REMARK                            x       y       z     vdW  Elec       q    Type
REMARK                         _______ _______ _______ _____ _____    ______ ____
ROOT
ATOM      1  O   HOH     1      14.833  -6.457 -42.599  0.00  0.00    +0.000 OA
ENDROOT
TORSDOF 0
REMARK  Name = ../refined-set-2016/4lov/4lov_pocket.pdb
REMARK  122 active torsions:
REMARK  status: ('A' for Active; 'I' for Inactive)
REMARK    1  A    between atoms: _1  and  _5
REMARK    2  A    between atoms: _5  and  _6
REMARK    3  A    between atoms: _5  and  _8
REMARK    4  A    between atoms: _6  and  _7
REMARK    5  A    between atoms: _6  and  _15
REMARK    6  A    between atoms: _8  and  _9
REMARK    7  A    between atoms: _15  and  _17
REMARK    8  A    between atoms: _17  and  _18
REMARK    9  A    between atoms: _22  and  _23
REMARK   10  A    between atoms: _28  and  _30
REMARK   11  A    between atoms: _30  and  _31
REMARK   12  A    between atoms: _30  and  _33
REMARK   13  A    between atoms: _33  and  _34
REMARK   14  A    between atoms: _37  and  _39
REMARK   15  A    between atoms: _39  and  _40
REMARK   16  A    between atoms: _42  and  _44
REMARK   17  A    between atoms: _44  and  _45
REMARK   18  A    between atoms: _47  and  _49
REMARK   19  A    between atoms: _49  and  _50
REMARK   20  A    between atoms: _49  and  _52
REMARK   21  A    between atoms: _52  and  _53
REMARK   22  A    between atoms: _58  and  _60
REMARK   23  A    between atoms: _60  and  _61
REMARK   24  A    between atoms: _60  and  _63
REMARK   25  A    between atoms: _63  and  _64
REMARK   26  A    between atoms: _69  and  _71
REMARK   27  A    between atoms: _71  and  _72
REMARK   28  A    between atoms: _71  and  _74
REMARK   29  A    between atoms: _74  and  _75
REMARK   30  A    between atoms: _78  and  _80
REMARK   31  A    between atoms: _80  and  _81
REMARK   32  A    between atoms: _80  and  _83
REMARK   33  A    between atoms: _83  and  _84
REMARK   34  A    between atoms: _89  and  _90
REMARK   35  A    between atoms: _93  and  _94
REMARK   36  A    between atoms: _99  and  _101
REMARK   37  A    between atoms: _101  and  _102
REMARK   38  A    between atoms: _101  and  _104
REMARK   39  A    between atoms: _104  and  _105
REMARK   40  A    between atoms: _105  and  _106
REMARK   41  A    between atoms: _109  and  _111
REMARK   42  A    between atoms: _111  and  _112
REMARK   43  A    between atoms: _111  and  _114
REMARK   44  A    between atoms: _114  and  _115
REMARK   45  A    between atoms: _118  and  _120
REMARK   46  A    between atoms: _120  and  _121
REMARK   47  A    between atoms: _120  and  _123
REMARK   48  A    between atoms: _123  and  _124
REMARK   49  A    between atoms: _127  and  _129
REMARK   50  A    between atoms: _129  and  _130
REMARK   51  A    between atoms: _129  and  _132
REMARK   52  A    between atoms: _132  and  _133
REMARK   53  A    between atoms: _136  and  _138
REMARK   54  A    between atoms: _138  and  _139
REMARK   55  A    between atoms: _138  and  _141
REMARK   56  A    between atoms: _141  and  _142
REMARK   57  A    between atoms: _145  and  _147
REMARK   58  A    between atoms: _147  and  _148
REMARK   59  A    between atoms: _147  and  _150
REMARK   60  A    between atoms: _150  and  _151
REMARK   61  A    between atoms: _156  and  _157
REMARK   62  A    between atoms: _159  and  _161
REMARK   63  A    between atoms: _161  and  _162
REMARK   64  A    between atoms: _161  and  _164
REMARK   65  A    between atoms: _164  and  _165
REMARK   66  A    between atoms: _170  and  _171
REMARK   67  A    between atoms: _173  and  _175
REMARK   68  A    between atoms: _175  and  _176
REMARK   69  A    between atoms: _175  and  _178
REMARK   70  A    between atoms: _178  and  _179
REMARK   71  A    between atoms: _181  and  _183
REMARK   72  A    between atoms: _183  and  _184
REMARK   73  A    between atoms: _183  and  _186
REMARK   74  A    between atoms: _186  and  _187
REMARK   75  A    between atoms: _187  and  _188
REMARK   76  A    between atoms: _188  and  _189
REMARK   77  A    between atoms: _198  and  _200
REMARK   78  A    between atoms: _200  and  _201
REMARK   79  A    between atoms: _200  and  _203
REMARK   80  A    between atoms: _203  and  _204
REMARK   81  A    between atoms: _204  and  _205
REMARK   82  A    between atoms: _210  and  _212
REMARK   83  A    between atoms: _212  and  _213
REMARK   84  A    between atoms: _212  and  _215
REMARK   85  A    between atoms: _215  and  _216
REMARK   86  A    between atoms: _219  and  _221
REMARK   87  A    between atoms: _221  and  _222
REMARK   88  A    between atoms: _221  and  _224
REMARK   89  A    between atoms: _224  and  _225
REMARK   90  A    between atoms: _230  and  _232
REMARK   91  A    between atoms: _232  and  _233
REMARK   92  A    between atoms: _232  and  _235
REMARK   93  A    between atoms: _235  and  _236
REMARK   94  A    between atoms: _241  and  _243
REMARK   95  A    between atoms: _243  and  _244
REMARK   96  A    between atoms: _243  and  _246
REMARK   97  A    between atoms: _246  and  _247
REMARK   98  A    between atoms: _252  and  _253
REMARK   99  A    between atoms: _255  and  _257
REMARK  100  A    between atoms: _257  and  _258
REMARK  101  A    between atoms: _257  and  _260
REMARK  102  A    between atoms: _260  and  _261
REMARK  103  A    between atoms: _266  and  _268
REMARK  104  A    between atoms: _268  and  _269
REMARK  105  A    between atoms: _268  and  _271
REMARK  106  A    between atoms: _271  and  _272
REMARK  107  A    between atoms: _274  and  _276
REMARK  108  A    between atoms: _276  and  _277
REMARK  109  A    between atoms: _276  and  _279
REMARK  110  A    between atoms: _279  and  _280
REMARK  111  A    between atoms: _283  and  _285
REMARK  112  A    between atoms: _285  and  _286
REMARK  113  A    between atoms: _285  and  _288
REMARK  114  A    between atoms: _288  and  _289
REMARK  115  A    between atoms: _292  and  _294
REMARK  116  A    between atoms: _294  and  _295
REMARK  117  A    between atoms: _294  and  _297
REMARK  118  A    between atoms: _297  and  _298
REMARK  119  A    between atoms: _304  and  _306
REMARK  120  A    between atoms: _306  and  _307
REMARK  121  A    between atoms: _306  and  _309
REMARK  122  A    between atoms: _309  and  _310
REMARK                            x       y       z     vdW  Elec       q    Type
REMARK                         _______ _______ _______ _____ _____    ______ ____
ROOT
ATOM      1  O   HOH     1      15.627  -6.295 -40.111  0.00  0.00    +0.000 OA
ENDROOT
TORSDOF 0
REMARK  Name = ../refined-set-2016/4lov/4lov_pocket.pdb
REMARK  122 active torsions:
REMARK  status: ('A' for Active; 'I' for Inactive)
REMARK    1  A    between atoms: _1  and  _5
REMARK    2  A    between atoms: _5  and  _6
REMARK    3  A    between atoms: _5  and  _8
REMARK    4  A    between atoms: _6  and  _7
REMARK    5  A    between atoms: _6  and  _15
REMARK    6  A    between atoms: _8  and  _9
REMARK    7  A    between atoms: _15  and  _17
REMARK    8  A    between atoms: _17  and  _18
REMARK    9  A    between atoms: _22  and  _23
REMARK   10  A    between atoms: _28  and  _30
REMARK   11  A    between atoms: _30  and  _31
REMARK   12  A    between atoms: _30  and  _33
REMARK   13  A    between atoms: _33  and  _34
REMARK   14  A    between atoms: _37  and  _39
REMARK   15  A    between atoms: _39  and  _40
REMARK   16  A    between atoms: _42  and  _44
REMARK   17  A    between atoms: _44  and  _45
REMARK   18  A    between atoms: _47  and  _49
REMARK   19  A    between atoms: _49  and  _50
REMARK   20  A    between atoms: _49  and  _52
REMARK   21  A    between atoms: _52  and  _53
REMARK   22  A    between atoms: _58  and  _60
REMARK   23  A    between atoms: _60  and  _61
REMARK   24  A    between atoms: _60  and  _63
REMARK   25  A    between atoms: _63  and  _64
REMARK   26  A    between atoms: _69  and  _71
REMARK   27  A    between atoms: _71  and  _72
REMARK   28  A    between atoms: _71  and  _74
REMARK   29  A    between atoms: _74  and  _75
REMARK   30  A    between atoms: _78  and  _80
REMARK   31  A    between atoms: _80  and  _81
REMARK   32  A    between atoms: _80  and  _83
REMARK   33  A    between atoms: _83  and  _84
REMARK   34  A    between atoms: _89  and  _90
REMARK   35  A    between atoms: _93  and  _94
REMARK   36  A    between atoms: _99  and  _101
REMARK   37  A    between atoms: _101  and  _102
REMARK   38  A    between atoms: _101  and  _104
REMARK   39  A    between atoms: _104  and  _105
REMARK   40  A    between atoms: _105  and  _106
REMARK   41  A    between atoms: _109  and  _111
REMARK   42  A    between atoms: _111  and  _112
REMARK   43  A    between atoms: _111  and  _114
REMARK   44  A    between atoms: _114  and  _115
REMARK   45  A    between atoms: _118  and  _120
REMARK   46  A    between atoms: _120  and  _121
REMARK   47  A    between atoms: _120  and  _123
REMARK   48  A    between atoms: _123  and  _124
REMARK   49  A    between atoms: _127  and  _129
REMARK   50  A    between atoms: _129  and  _130
REMARK   51  A    between atoms: _129  and  _132
REMARK   52  A    between atoms: _132  and  _133
REMARK   53  A    between atoms: _136  and  _138
REMARK   54  A    between atoms: _138  and  _139
REMARK   55  A    between atoms: _138  and  _141
REMARK   56  A    between atoms: _141  and  _142
REMARK   57  A    between atoms: _145  and  _147
REMARK   58  A    between atoms: _147  and  _148
REMARK   59  A    between atoms: _147  and  _150
REMARK   60  A    between atoms: _150  and  _151
REMARK   61  A    between atoms: _156  and  _157
REMARK   62  A    between atoms: _159  and  _161
REMARK   63  A    between atoms: _161  and  _162
REMARK   64  A    between atoms: _161  and  _164
REMARK   65  A    between atoms: _164  and  _165
REMARK   66  A    between atoms: _170  and  _171
REMARK   67  A    between atoms: _173  and  _175
REMARK   68  A    between atoms: _175  and  _176
REMARK   69  A    between atoms: _175  and  _178
REMARK   70  A    between atoms: _178  and  _179
REMARK   71  A    between atoms: _181  and  _183
REMARK   72  A    between atoms: _183  and  _184
REMARK   73  A    between atoms: _183  and  _186
REMARK   74  A    between atoms: _186  and  _187
REMARK   75  A    between atoms: _187  and  _188
REMARK   76  A    between atoms: _188  and  _189
REMARK   77  A    between atoms: _198  and  _200
REMARK   78  A    between atoms: _200  and  _201
REMARK   79  A    between atoms: _200  and  _203
REMARK   80  A    between atoms: _203  and  _204
REMARK   81  A    between atoms: _204  and  _205
REMARK   82  A    between atoms: _210  and  _212
REMARK   83  A    between atoms: _212  and  _213
REMARK   84  A    between atoms: _212  and  _215
REMARK   85  A    between atoms: _215  and  _216
REMARK   86  A    between atoms: _219  and  _221
REMARK   87  A    between atoms: _221  and  _222
REMARK   88  A    between atoms: _221  and  _224
REMARK   89  A    between atoms: _224  and  _225
REMARK   90  A    between atoms: _230  and  _232
REMARK   91  A    between atoms: _232  and  _233
REMARK   92  A    between atoms: _232  and  _235
REMARK   93  A    between atoms: _235  and  _236
REMARK   94  A    between atoms: _241  and  _243
REMARK   95  A    between atoms: _243  and  _244
REMARK   96  A    between atoms: _243  and  _246
REMARK   97  A    between atoms: _246  and  _247
REMARK   98  A    between atoms: _252  and  _253
REMARK   99  A    between atoms: _255  and  _257
REMARK  100  A    between atoms: _257  and  _258
REMARK  101  A    between atoms: _257  and  _260
REMARK  102  A    between atoms: _260  and  _261
REMARK  103  A    between atoms: _266  and  _268
REMARK  104  A    between atoms: _268  and  _269
REMARK  105  A    between atoms: _268  and  _271
REMARK  106  A    between atoms: _271  and  _272
REMARK  107  A    between atoms: _274  and  _276
REMARK  108  A    between atoms: _276  and  _277
REMARK  109  A    between atoms: _276  and  _279
REMARK  110  A    between atoms: _279  and  _280
REMARK  111  A    between atoms: _283  and  _285
REMARK  112  A    between atoms: _285  and  _286
REMARK  113  A    between atoms: _285  and  _288
REMARK  114  A    between atoms: _288  and  _289
REMARK  115  A    between atoms: _292  and  _294
REMARK  116  A    between atoms: _294  and  _295
REMARK  117  A    between atoms: _294  and  _297
REMARK  118  A    between atoms: _297  and  _298
REMARK  119  A    between atoms: _304  and  _306
REMARK  120  A    between atoms: _306  and  _307
REMARK  121  A    between atoms: _306  and  _309
REMARK  122  A    between atoms: _309  and  _310
REMARK                            x       y       z     vdW  Elec       q    Type
REMARK                         _______ _______ _______ _____ _____    ______ ____
ROOT
ATOM      1  O   HOH     1      18.342  -3.860 -35.235  0.00  0.00    +0.000 OA
ENDROOT
TORSDOF 0
REMARK  Name = ../refined-set-2016/4lov/4lov_pocket.pdb
REMARK  122 active torsions:
REMARK  status: ('A' for Active; 'I' for Inactive)
REMARK    1  A    between atoms: _1  and  _5
REMARK    2  A    between atoms: _5  and  _6
REMARK    3  A    between atoms: _5  and  _8
REMARK    4  A    between atoms: _6  and  _7
REMARK    5  A    between atoms: _6  and  _15
REMARK    6  A    between atoms: _8  and  _9
REMARK    7  A    between atoms: _15  and  _17
REMARK    8  A    between atoms: _17  and  _18
REMARK    9  A    between atoms: _22  and  _23
REMARK   10  A    between atoms: _28  and  _30
REMARK   11  A    between atoms: _30  and  _31
REMARK   12  A    between atoms: _30  and  _33
REMARK   13  A    between atoms: _33  and  _34
REMARK   14  A    between atoms: _37  and  _39
REMARK   15  A    between atoms: _39  and  _40
REMARK   16  A    between atoms: _42  and  _44
REMARK   17  A    between atoms: _44  and  _45
REMARK   18  A    between atoms: _47  and  _49
REMARK   19  A    between atoms: _49  and  _50
REMARK   20  A    between atoms: _49  and  _52
REMARK   21  A    between atoms: _52  and  _53
REMARK   22  A    between atoms: _58  and  _60
REMARK   23  A    between atoms: _60  and  _61
REMARK   24  A    between atoms: _60  and  _63
REMARK   25  A    between atoms: _63  and  _64
REMARK   26  A    between atoms: _69  and  _71
REMARK   27  A    between atoms: _71  and  _72
REMARK   28  A    between atoms: _71  and  _74
REMARK   29  A    between atoms: _74  and  _75
REMARK   30  A    between atoms: _78  and  _80
REMARK   31  A    between atoms: _80  and  _81
REMARK   32  A    between atoms: _80  and  _83
REMARK   33  A    between atoms: _83  and  _84
REMARK   34  A    between atoms: _89  and  _90
REMARK   35  A    between atoms: _93  and  _94
REMARK   36  A    between atoms: _99  and  _101
REMARK   37  A    between atoms: _101  and  _102
REMARK   38  A    between atoms: _101  and  _104
REMARK   39  A    between atoms: _104  and  _105
REMARK   40  A    between atoms: _105  and  _106
REMARK   41  A    between atoms: _109  and  _111
REMARK   42  A    between atoms: _111  and  _112
REMARK   43  A    between atoms: _111  and  _114
REMARK   44  A    between atoms: _114  and  _115
REMARK   45  A    between atoms: _118  and  _120
REMARK   46  A    between atoms: _120  and  _121
REMARK   47  A    between atoms: _120  and  _123
REMARK   48  A    between atoms: _123  and  _124
REMARK   49  A    between atoms: _127  and  _129
REMARK   50  A    between atoms: _129  and  _130
REMARK   51  A    between atoms: _129  and  _132
REMARK   52  A    between atoms: _132  and  _133
REMARK   53  A    between atoms: _136  and  _138
REMARK   54  A    between atoms: _138  and  _139
REMARK   55  A    between atoms: _138  and  _141
REMARK   56  A    between atoms: _141  and  _142
REMARK   57  A    between atoms: _145  and  _147
REMARK   58  A    between atoms: _147  and  _148
REMARK   59  A    between atoms: _147  and  _150
REMARK   60  A    between atoms: _150  and  _151
REMARK   61  A    between atoms: _156  and  _157
REMARK   62  A    between atoms: _159  and  _161
REMARK   63  A    between atoms: _161  and  _162
REMARK   64  A    between atoms: _161  and  _164
REMARK   65  A    between atoms: _164  and  _165
REMARK   66  A    between atoms: _170  and  _171
REMARK   67  A    between atoms: _173  and  _175
REMARK   68  A    between atoms: _175  and  _176
REMARK   69  A    between atoms: _175  and  _178
REMARK   70  A    between atoms: _178  and  _179
REMARK   71  A    between atoms: _181  and  _183
REMARK   72  A    between atoms: _183  and  _184
REMARK   73  A    between atoms: _183  and  _186
REMARK   74  A    between atoms: _186  and  _187
REMARK   75  A    between atoms: _187  and  _188
REMARK   76  A    between atoms: _188  and  _189
REMARK   77  A    between atoms: _198  and  _200
REMARK   78  A    between atoms: _200  and  _201
REMARK   79  A    between atoms: _200  and  _203
REMARK   80  A    between atoms: _203  and  _204
REMARK   81  A    between atoms: _204  and  _205
REMARK   82  A    between atoms: _210  and  _212
REMARK   83  A    between atoms: _212  and  _213
REMARK   84  A    between atoms: _212  and  _215
REMARK   85  A    between atoms: _215  and  _216
REMARK   86  A    between atoms: _219  and  _221
REMARK   87  A    between atoms: _221  and  _222
REMARK   88  A    between atoms: _221  and  _224
REMARK   89  A    between atoms: _224  and  _225
REMARK   90  A    between atoms: _230  and  _232
REMARK   91  A    between atoms: _232  and  _233
REMARK   92  A    between atoms: _232  and  _235
REMARK   93  A    between atoms: _235  and  _236
REMARK   94  A    between atoms: _241  and  _243
REMARK   95  A    between atoms: _243  and  _244
REMARK   96  A    between atoms: _243  and  _246
REMARK   97  A    between atoms: _246  and  _247
REMARK   98  A    between atoms: _252  and  _253
REMARK   99  A    between atoms: _255  and  _257
REMARK  100  A    between atoms: _257  and  _258
REMARK  101  A    between atoms: _257  and  _260
REMARK  102  A    between atoms: _260  and  _261
REMARK  103  A    between atoms: _266  and  _268
REMARK  104  A    between atoms: _268  and  _269
REMARK  105  A    between atoms: _268  and  _271
REMARK  106  A    between atoms: _271  and  _272
REMARK  107  A    between atoms: _274  and  _276
REMARK  108  A    between atoms: _276  and  _277
REMARK  109  A    between atoms: _276  and  _279
REMARK  110  A    between atoms: _279  and  _280
REMARK  111  A    between atoms: _283  and  _285
REMARK  112  A    between atoms: _285  and  _286
REMARK  113  A    between atoms: _285  and  _288
REMARK  114  A    between atoms: _288  and  _289
REMARK  115  A    between atoms: _292  and  _294
REMARK  116  A    between atoms: _294  and  _295
REMARK  117  A    between atoms: _294  and  _297
REMARK  118  A    between atoms: _297  and  _298
REMARK  119  A    between atoms: _304  and  _306
REMARK  120  A    between atoms: _306  and  _307
REMARK  121  A    between atoms: _306  and  _309
REMARK  122  A    between atoms: _309  and  _310
REMARK                            x       y       z     vdW  Elec       q    Type
REMARK                         _______ _______ _______ _____ _____    ______ ____
ROOT
ATOM      1  O   HOH     1      13.798  -8.749 -43.527  0.00  0.00    +0.000 OA
ENDROOT
TORSDOF 0
REMARK  Name = ../refined-set-2016/4lov/4lov_pocket.pdb
REMARK  122 active torsions:
REMARK  status: ('A' for Active; 'I' for Inactive)
REMARK    1  A    between atoms: _1  and  _5
REMARK    2  A    between atoms: _5  and  _6
REMARK    3  A    between atoms: _5  and  _8
REMARK    4  A    between atoms: _6  and  _7
REMARK    5  A    between atoms: _6  and  _15
REMARK    6  A    between atoms: _8  and  _9
REMARK    7  A    between atoms: _15  and  _17
REMARK    8  A    between atoms: _17  and  _18
REMARK    9  A    between atoms: _22  and  _23
REMARK   10  A    between atoms: _28  and  _30
REMARK   11  A    between atoms: _30  and  _31
REMARK   12  A    between atoms: _30  and  _33
REMARK   13  A    between atoms: _33  and  _34
REMARK   14  A    between atoms: _37  and  _39
REMARK   15  A    between atoms: _39  and  _40
REMARK   16  A    between atoms: _42  and  _44
REMARK   17  A    between atoms: _44  and  _45
REMARK   18  A    between atoms: _47  and  _49
REMARK   19  A    between atoms: _49  and  _50
REMARK   20  A    between atoms: _49  and  _52
REMARK   21  A    between atoms: _52  and  _53
REMARK   22  A    between atoms: _58  and  _60
REMARK   23  A    between atoms: _60  and  _61
REMARK   24  A    between atoms: _60  and  _63
REMARK   25  A    between atoms: _63  and  _64
REMARK   26  A    between atoms: _69  and  _71
REMARK   27  A    between atoms: _71  and  _72
REMARK   28  A    between atoms: _71  and  _74
REMARK   29  A    between atoms: _74  and  _75
REMARK   30  A    between atoms: _78  and  _80
REMARK   31  A    between atoms: _80  and  _81
REMARK   32  A    between atoms: _80  and  _83
REMARK   33  A    between atoms: _83  and  _84
REMARK   34  A    between atoms: _89  and  _90
REMARK   35  A    between atoms: _93  and  _94
REMARK   36  A    between atoms: _99  and  _101
REMARK   37  A    between atoms: _101  and  _102
REMARK   38  A    between atoms: _101  and  _104
REMARK   39  A    between atoms: _104  and  _105
REMARK   40  A    between atoms: _105  and  _106
REMARK   41  A    between atoms: _109  and  _111
REMARK   42  A    between atoms: _111  and  _112
REMARK   43  A    between atoms: _111  and  _114
REMARK   44  A    between atoms: _114  and  _115
REMARK   45  A    between atoms: _118  and  _120
REMARK   46  A    between atoms: _120  and  _121
REMARK   47  A    between atoms: _120  and  _123
REMARK   48  A    between atoms: _123  and  _124
REMARK   49  A    between atoms: _127  and  _129
REMARK   50  A    between atoms: _129  and  _130
REMARK   51  A    between atoms: _129  and  _132
REMARK   52  A    between atoms: _132  and  _133
REMARK   53  A    between atoms: _136  and  _138
REMARK   54  A    between atoms: _138  and  _139
REMARK   55  A    between atoms: _138  and  _141
REMARK   56  A    between atoms: _141  and  _142
REMARK   57  A    between atoms: _145  and  _147
REMARK   58  A    between atoms: _147  and  _148
REMARK   59  A    between atoms: _147  and  _150
REMARK   60  A    between atoms: _150  and  _151
REMARK   61  A    between atoms: _156  and  _157
REMARK   62  A    between atoms: _159  and  _161
REMARK   63  A    between atoms: _161  and  _162
REMARK   64  A    between atoms: _161  and  _164
REMARK   65  A    between atoms: _164  and  _165
REMARK   66  A    between atoms: _170  and  _171
REMARK   67  A    between atoms: _173  and  _175
REMARK   68  A    between atoms: _175  and  _176
REMARK   69  A    between atoms: _175  and  _178
REMARK   70  A    between atoms: _178  and  _179
REMARK   71  A    between atoms: _181  and  _183
REMARK   72  A    between atoms: _183  and  _184
REMARK   73  A    between atoms: _183  and  _186
REMARK   74  A    between atoms: _186  and  _187
REMARK   75  A    between atoms: _187  and  _188
REMARK   76  A    between atoms: _188  and  _189
REMARK   77  A    between atoms: _198  and  _200
REMARK   78  A    between atoms: _200  and  _201
REMARK   79  A    between atoms: _200  and  _203
REMARK   80  A    between atoms: _203  and  _204
REMARK   81  A    between atoms: _204  and  _205
REMARK   82  A    between atoms: _210  and  _212
REMARK   83  A    between atoms: _212  and  _213
REMARK   84  A    between atoms: _212  and  _215
REMARK   85  A    between atoms: _215  and  _216
REMARK   86  A    between atoms: _219  and  _221
REMARK   87  A    between atoms: _221  and  _222
REMARK   88  A    between atoms: _221  and  _224
REMARK   89  A    between atoms: _224  and  _225
REMARK   90  A    between atoms: _230  and  _232
REMARK   91  A    between atoms: _232  and  _233
REMARK   92  A    between atoms: _232  and  _235
REMARK   93  A    between atoms: _235  and  _236
REMARK   94  A    between atoms: _241  and  _243
REMARK   95  A    between atoms: _243  and  _244
REMARK   96  A    between atoms: _243  and  _246
REMARK   97  A    between atoms: _246  and  _247
REMARK   98  A    between atoms: _252  and  _253
REMARK   99  A    between atoms: _255  and  _257
REMARK  100  A    between atoms: _257  and  _258
REMARK  101  A    between atoms: _257  and  _260
REMARK  102  A    between atoms: _260  and  _261
REMARK  103  A    between atoms: _266  and  _268
REMARK  104  A    between atoms: _268  and  _269
REMARK  105  A    between atoms: _268  and  _271
REMARK  106  A    between atoms: _271  and  _272
REMARK  107  A    between atoms: _274  and  _276
REMARK  108  A    between atoms: _276  and  _277
REMARK  109  A    between atoms: _276  and  _279
REMARK  110  A    between atoms: _279  and  _280
REMARK  111  A    between atoms: _283  and  _285
REMARK  112  A    between atoms: _285  and  _286
REMARK  113  A    between atoms: _285  and  _288
REMARK  114  A    between atoms: _288  and  _289
REMARK  115  A    between atoms: _292  and  _294
REMARK  116  A    between atoms: _294  and  _295
REMARK  117  A    between atoms: _294  and  _297
REMARK  118  A    between atoms: _297  and  _298
REMARK  119  A    between atoms: _304  and  _306
REMARK  120  A    between atoms: _306  and  _307
REMARK  121  A    between atoms: _306  and  _309
REMARK  122  A    between atoms: _309  and  _310
REMARK                            x       y       z     vdW  Elec       q    Type
REMARK                         _______ _______ _______ _____ _____    ______ ____
ROOT
ATOM      1  O   HOH     1      11.279  -9.770 -47.694  0.00  0.00    +0.000 OA
ENDROOT
TORSDOF 0
REMARK  Name = ../refined-set-2016/4lov/4lov_pocket.pdb
REMARK  122 active torsions:
REMARK  status: ('A' for Active; 'I' for Inactive)
REMARK    1  A    between atoms: _1  and  _5
REMARK    2  A    between atoms: _5  and  _6
REMARK    3  A    between atoms: _5  and  _8
REMARK    4  A    between atoms: _6  and  _7
REMARK    5  A    between atoms: _6  and  _15
REMARK    6  A    between atoms: _8  and  _9
REMARK    7  A    between atoms: _15  and  _17
REMARK    8  A    between atoms: _17  and  _18
REMARK    9  A    between atoms: _22  and  _23
REMARK   10  A    between atoms: _28  and  _30
REMARK   11  A    between atoms: _30  and  _31
REMARK   12  A    between atoms: _30  and  _33
REMARK   13  A    between atoms: _33  and  _34
REMARK   14  A    between atoms: _37  and  _39
REMARK   15  A    between atoms: _39  and  _40
REMARK   16  A    between atoms: _42  and  _44
REMARK   17  A    between atoms: _44  and  _45
REMARK   18  A    between atoms: _47  and  _49
REMARK   19  A    between atoms: _49  and  _50
REMARK   20  A    between atoms: _49  and  _52
REMARK   21  A    between atoms: _52  and  _53
REMARK   22  A    between atoms: _58  and  _60
REMARK   23  A    between atoms: _60  and  _61
REMARK   24  A    between atoms: _60  and  _63
REMARK   25  A    between atoms: _63  and  _64
REMARK   26  A    between atoms: _69  and  _71
REMARK   27  A    between atoms: _71  and  _72
REMARK   28  A    between atoms: _71  and  _74
REMARK   29  A    between atoms: _74  and  _75
REMARK   30  A    between atoms: _78  and  _80
REMARK   31  A    between atoms: _80  and  _81
REMARK   32  A    between atoms: _80  and  _83
REMARK   33  A    between atoms: _83  and  _84
REMARK   34  A    between atoms: _89  and  _90
REMARK   35  A    between atoms: _93  and  _94
REMARK   36  A    between atoms: _99  and  _101
REMARK   37  A    between atoms: _101  and  _102
REMARK   38  A    between atoms: _101  and  _104
REMARK   39  A    between atoms: _104  and  _105
REMARK   40  A    between atoms: _105  and  _106
REMARK   41  A    between atoms: _109  and  _111
REMARK   42  A    between atoms: _111  and  _112
REMARK   43  A    between atoms: _111  and  _114
REMARK   44  A    between atoms: _114  and  _115
REMARK   45  A    between atoms: _118  and  _120
REMARK   46  A    between atoms: _120  and  _121
REMARK   47  A    between atoms: _120  and  _123
REMARK   48  A    between atoms: _123  and  _124
REMARK   49  A    between atoms: _127  and  _129
REMARK   50  A    between atoms: _129  and  _130
REMARK   51  A    between atoms: _129  and  _132
REMARK   52  A    between atoms: _132  and  _133
REMARK   53  A    between atoms: _136  and  _138
REMARK   54  A    between atoms: _138  and  _139
REMARK   55  A    between atoms: _138  and  _141
REMARK   56  A    between atoms: _141  and  _142
REMARK   57  A    between atoms: _145  and  _147
REMARK   58  A    between atoms: _147  and  _148
REMARK   59  A    between atoms: _147  and  _150
REMARK   60  A    between atoms: _150  and  _151
REMARK   61  A    between atoms: _156  and  _157
REMARK   62  A    between atoms: _159  and  _161
REMARK   63  A    between atoms: _161  and  _162
REMARK   64  A    between atoms: _161  and  _164
REMARK   65  A    between atoms: _164  and  _165
REMARK   66  A    between atoms: _170  and  _171
REMARK   67  A    between atoms: _173  and  _175
REMARK   68  A    between atoms: _175  and  _176
REMARK   69  A    between atoms: _175  and  _178
REMARK   70  A    between atoms: _178  and  _179
REMARK   71  A    between atoms: _181  and  _183
REMARK   72  A    between atoms: _183  and  _184
REMARK   73  A    between atoms: _183  and  _186
REMARK   74  A    between atoms: _186  and  _187
REMARK   75  A    between atoms: _187  and  _188
REMARK   76  A    between atoms: _188  and  _189
REMARK   77  A    between atoms: _198  and  _200
REMARK   78  A    between atoms: _200  and  _201
REMARK   79  A    between atoms: _200  and  _203
REMARK   80  A    between atoms: _203  and  _204
REMARK   81  A    between atoms: _204  and  _205
REMARK   82  A    between atoms: _210  and  _212
REMARK   83  A    between atoms: _212  and  _213
REMARK   84  A    between atoms: _212  and  _215
REMARK   85  A    between atoms: _215  and  _216
REMARK   86  A    between atoms: _219  and  _221
REMARK   87  A    between atoms: _221  and  _222
REMARK   88  A    between atoms: _221  and  _224
REMARK   89  A    between atoms: _224  and  _225
REMARK   90  A    between atoms: _230  and  _232
REMARK   91  A    between atoms: _232  and  _233
REMARK   92  A    between atoms: _232  and  _235
REMARK   93  A    between atoms: _235  and  _236
REMARK   94  A    between atoms: _241  and  _243
REMARK   95  A    between atoms: _243  and  _244
REMARK   96  A    between atoms: _243  and  _246
REMARK   97  A    between atoms: _246  and  _247
REMARK   98  A    between atoms: _252  and  _253
REMARK   99  A    between atoms: _255  and  _257
REMARK  100  A    between atoms: _257  and  _258
REMARK  101  A    between atoms: _257  and  _260
REMARK  102  A    between atoms: _260  and  _261
REMARK  103  A    between atoms: _266  and  _268
REMARK  104  A    between atoms: _268  and  _269
REMARK  105  A    between atoms: _268  and  _271
REMARK  106  A    between atoms: _271  and  _272
REMARK  107  A    between atoms: _274  and  _276
REMARK  108  A    between atoms: _276  and  _277
REMARK  109  A    between atoms: _276  and  _279
REMARK  110  A    between atoms: _279  and  _280
REMARK  111  A    between atoms: _283  and  _285
REMARK  112  A    between atoms: _285  and  _286
REMARK  113  A    between atoms: _285  and  _288
REMARK  114  A    between atoms: _288  and  _289
REMARK  115  A    between atoms: _292  and  _294
REMARK  116  A    between atoms: _294  and  _295
REMARK  117  A    between atoms: _294  and  _297
REMARK  118  A    between atoms: _297  and  _298
REMARK  119  A    between atoms: _304  and  _306
REMARK  120  A    between atoms: _306  and  _307
REMARK  121  A    between atoms: _306  and  _309
REMARK  122  A    between atoms: _309  and  _310
REMARK                            x       y       z     vdW  Elec       q    Type
REMARK                         _______ _______ _______ _____ _____    ______ ____
ROOT
ATOM      1  O   HOH     1      12.811  -7.531 -47.596  0.00  0.00    +0.000 OA
ENDROOT
TORSDOF 0
REMARK  Name = ../refined-set-2016/4lov/4lov_pocket.pdb
REMARK  122 active torsions:
REMARK  status: ('A' for Active; 'I' for Inactive)
REMARK    1  A    between atoms: _1  and  _5
REMARK    2  A    between atoms: _5  and  _6
REMARK    3  A    between atoms: _5  and  _8
REMARK    4  A    between atoms: _6  and  _7
REMARK    5  A    between atoms: _6  and  _15
REMARK    6  A    between atoms: _8  and  _9
REMARK    7  A    between atoms: _15  and  _17
REMARK    8  A    between atoms: _17  and  _18
REMARK    9  A    between atoms: _22  and  _23
REMARK   10  A    between atoms: _28  and  _30
REMARK   11  A    between atoms: _30  and  _31
REMARK   12  A    between atoms: _30  and  _33
REMARK   13  A    between atoms: _33  and  _34
REMARK   14  A    between atoms: _37  and  _39
REMARK   15  A    between atoms: _39  and  _40
REMARK   16  A    between atoms: _42  and  _44
REMARK   17  A    between atoms: _44  and  _45
REMARK   18  A    between atoms: _47  and  _49
REMARK   19  A    between atoms: _49  and  _50
REMARK   20  A    between atoms: _49  and  _52
REMARK   21  A    between atoms: _52  and  _53
REMARK   22  A    between atoms: _58  and  _60
REMARK   23  A    between atoms: _60  and  _61
REMARK   24  A    between atoms: _60  and  _63
REMARK   25  A    between atoms: _63  and  _64
REMARK   26  A    between atoms: _69  and  _71
REMARK   27  A    between atoms: _71  and  _72
REMARK   28  A    between atoms: _71  and  _74
REMARK   29  A    between atoms: _74  and  _75
REMARK   30  A    between atoms: _78  and  _80
REMARK   31  A    between atoms: _80  and  _81
REMARK   32  A    between atoms: _80  and  _83
REMARK   33  A    between atoms: _83  and  _84
REMARK   34  A    between atoms: _89  and  _90
REMARK   35  A    between atoms: _93  and  _94
REMARK   36  A    between atoms: _99  and  _101
REMARK   37  A    between atoms: _101  and  _102
REMARK   38  A    between atoms: _101  and  _104
REMARK   39  A    between atoms: _104  and  _105
REMARK   40  A    between atoms: _105  and  _106
REMARK   41  A    between atoms: _109  and  _111
REMARK   42  A    between atoms: _111  and  _112
REMARK   43  A    between atoms: _111  and  _114
REMARK   44  A    between atoms: _114  and  _115
REMARK   45  A    between atoms: _118  and  _120
REMARK   46  A    between atoms: _120  and  _121
REMARK   47  A    between atoms: _120  and  _123
REMARK   48  A    between atoms: _123  and  _124
REMARK   49  A    between atoms: _127  and  _129
REMARK   50  A    between atoms: _129  and  _130
REMARK   51  A    between atoms: _129  and  _132
REMARK   52  A    between atoms: _132  and  _133
REMARK   53  A    between atoms: _136  and  _138
REMARK   54  A    between atoms: _138  and  _139
REMARK   55  A    between atoms: _138  and  _141
REMARK   56  A    between atoms: _141  and  _142
REMARK   57  A    between atoms: _145  and  _147
REMARK   58  A    between atoms: _147  and  _148
REMARK   59  A    between atoms: _147  and  _150
REMARK   60  A    between atoms: _150  and  _151
REMARK   61  A    between atoms: _156  and  _157
REMARK   62  A    between atoms: _159  and  _161
REMARK   63  A    between atoms: _161  and  _162
REMARK   64  A    between atoms: _161  and  _164
REMARK   65  A    between atoms: _164  and  _165
REMARK   66  A    between atoms: _170  and  _171
REMARK   67  A    between atoms: _173  and  _175
REMARK   68  A    between atoms: _175  and  _176
REMARK   69  A    between atoms: _175  and  _178
REMARK   70  A    between atoms: _178  and  _179
REMARK   71  A    between atoms: _181  and  _183
REMARK   72  A    between atoms: _183  and  _184
REMARK   73  A    between atoms: _183  and  _186
REMARK   74  A    between atoms: _186  and  _187
REMARK   75  A    between atoms: _187  and  _188
REMARK   76  A    between atoms: _188  and  _189
REMARK   77  A    between atoms: _198  and  _200
REMARK   78  A    between atoms: _200  and  _201
REMARK   79  A    between atoms: _200  and  _203
REMARK   80  A    between atoms: _203  and  _204
REMARK   81  A    between atoms: _204  and  _205
REMARK   82  A    between atoms: _210  and  _212
REMARK   83  A    between atoms: _212  and  _213
REMARK   84  A    between atoms: _212  and  _215
REMARK   85  A    between atoms: _215  and  _216
REMARK   86  A    between atoms: _219  and  _221
REMARK   87  A    between atoms: _221  and  _222
REMARK   88  A    between atoms: _221  and  _224
REMARK   89  A    between atoms: _224  and  _225
REMARK   90  A    between atoms: _230  and  _232
REMARK   91  A    between atoms: _232  and  _233
REMARK   92  A    between atoms: _232  and  _235
REMARK   93  A    between atoms: _235  and  _236
REMARK   94  A    between atoms: _241  and  _243
REMARK   95  A    between atoms: _243  and  _244
REMARK   96  A    between atoms: _243  and  _246
REMARK   97  A    between atoms: _246  and  _247
REMARK   98  A    between atoms: _252  and  _253
REMARK   99  A    between atoms: _255  and  _257
REMARK  100  A    between atoms: _257  and  _258
REMARK  101  A    between atoms: _257  and  _260
REMARK  102  A    between atoms: _260  and  _261
REMARK  103  A    between atoms: _266  and  _268
REMARK  104  A    between atoms: _268  and  _269
REMARK  105  A    between atoms: _268  and  _271
REMARK  106  A    between atoms: _271  and  _272
REMARK  107  A    between atoms: _274  and  _276
REMARK  108  A    between atoms: _276  and  _277
REMARK  109  A    between atoms: _276  and  _279
REMARK  110  A    between atoms: _279  and  _280
REMARK  111  A    between atoms: _283  and  _285
REMARK  112  A    between atoms: _285  and  _286
REMARK  113  A    between atoms: _285  and  _288
REMARK  114  A    between atoms: _288  and  _289
REMARK  115  A    between atoms: _292  and  _294
REMARK  116  A    between atoms: _294  and  _295
REMARK  117  A    between atoms: _294  and  _297
REMARK  118  A    between atoms: _297  and  _298
REMARK  119  A    between atoms: _304  and  _306
REMARK  120  A    between atoms: _306  and  _307
REMARK  121  A    between atoms: _306  and  _309
REMARK  122  A    between atoms: _309  and  _310
REMARK                            x       y       z     vdW  Elec       q    Type
REMARK                         _______ _______ _______ _____ _____    ______ ____
ROOT
ATOM      1  O   HOH     1      18.030  -1.353 -36.179  0.00  0.00    +0.000 OA
ENDROOT
TORSDOF 0
