REMARK  Name = ../refined-set-2016/1ogg/1ogg_pocket.pdb
REMARK  251 active torsions:
REMARK  status: ('A' for Active; 'I' for Inactive)
REMARK    1  A    between atoms: _1  and  _3
REMARK    2  A    between atoms: _3  and  _4
REMARK    3  A    between atoms: _3  and  _6
REMARK    4  A    between atoms: _6  and  _7
REMARK    5  A    between atoms: _10  and  _12
REMARK    6  A    between atoms: _12  and  _13
REMARK    7  A    between atoms: _15  and  _17
REMARK    8  A    between atoms: _17  and  _18
REMARK    9  A    between atoms: _17  and  _20
REMARK   10  A    between atoms: _20  and  _21
REMARK   11  A    between atoms: _26  and  _27
REMARK   12  A    between atoms: _29  and  _31
REMARK   13  A    between atoms: _31  and  _32
REMARK   14  A    between atoms: _31  and  _34
REMARK   15  A    between atoms: _34  and  _35
REMARK   16  A    between atoms: _40  and  _41
REMARK   17  A    between atoms: _43  and  _45
REMARK   18  A    between atoms: _45  and  _46
REMARK   19  A    between atoms: _45  and  _48
REMARK   20  A    between atoms: _48  and  _49
REMARK   21  A    between atoms: _55  and  _57
REMARK   22  A    between atoms: _57  and  _58
REMARK   23  A    between atoms: _57  and  _60
REMARK   24  A    between atoms: _60  and  _61
REMARK   25  A    between atoms: _65  and  _66
REMARK   26  A    between atoms: _71  and  _73
REMARK   27  A    between atoms: _73  and  _74
REMARK   28  A    between atoms: _73  and  _76
REMARK   29  A    between atoms: _76  and  _77
REMARK   30  A    between atoms: _80  and  _82
REMARK   31  A    between atoms: _82  and  _83
REMARK   32  A    between atoms: _82  and  _85
REMARK   33  A    between atoms: _85  and  _86
REMARK   34  A    between atoms: _91  and  _93
REMARK   35  A    between atoms: _93  and  _94
REMARK   36  A    between atoms: _93  and  _96
REMARK   37  A    between atoms: _96  and  _97
REMARK   38  A    between atoms: _97  and  _98
REMARK   39  A    between atoms: _103  and  _105
REMARK   40  A    between atoms: _105  and  _106
REMARK   41  A    between atoms: _105  and  _108
REMARK   42  A    between atoms: _108  and  _109
REMARK   43  A    between atoms: _114  and  _116
REMARK   44  A    between atoms: _116  and  _117
REMARK   45  A    between atoms: _116  and  _119
REMARK   46  A    between atoms: _119  and  _120
REMARK   47  A    between atoms: _122  and  _124
REMARK   48  A    between atoms: _124  and  _125
REMARK   49  A    between atoms: _124  and  _127
REMARK   50  A    between atoms: _127  and  _128
REMARK   51  A    between atoms: _134  and  _136
REMARK   52  A    between atoms: _136  and  _137
REMARK   53  A    between atoms: _136  and  _139
REMARK   54  A    between atoms: _139  and  _140
REMARK   55  A    between atoms: _143  and  _145
REMARK   56  A    between atoms: _145  and  _146
REMARK   57  A    between atoms: _145  and  _148
REMARK   58  A    between atoms: _148  and  _149
REMARK   59  A    between atoms: _151  and  _153
REMARK   60  A    between atoms: _153  and  _154
REMARK   61  A    between atoms: _153  and  _156
REMARK   62  A    between atoms: _156  and  _157
REMARK   63  A    between atoms: _160  and  _162
REMARK   64  A    between atoms: _162  and  _163
REMARK   65  A    between atoms: _165  and  _167
REMARK   66  A    between atoms: _167  and  _168
REMARK   67  A    between atoms: _170  and  _172
REMARK   68  A    between atoms: _172  and  _173
REMARK   69  A    between atoms: _172  and  _175
REMARK   70  A    between atoms: _175  and  _176
REMARK   71  A    between atoms: _186  and  _188
REMARK   72  A    between atoms: _188  and  _189
REMARK   73  A    between atoms: _188  and  _191
REMARK   74  A    between atoms: _191  and  _192
REMARK   75  A    between atoms: _197  and  _198
REMARK   76  A    between atoms: _200  and  _202
REMARK   77  A    between atoms: _202  and  _203
REMARK   78  A    between atoms: _202  and  _205
REMARK   79  A    between atoms: _205  and  _206
REMARK   80  A    between atoms: _211  and  _212
REMARK   81  A    between atoms: _214  and  _216
REMARK   82  A    between atoms: _216  and  _217
REMARK   83  A    between atoms: _216  and  _219
REMARK   84  A    between atoms: _219  and  _220
REMARK   85  A    between atoms: _222  and  _224
REMARK   86  A    between atoms: _224  and  _225
REMARK   87  A    between atoms: _224  and  _227
REMARK   88  A    between atoms: _227  and  _228
REMARK   89  A    between atoms: _233  and  _235
REMARK   90  A    between atoms: _235  and  _236
REMARK   91  A    between atoms: _235  and  _238
REMARK   92  A    between atoms: _241  and  _243
REMARK   93  A    between atoms: _243  and  _244
REMARK   94  A    between atoms: _243  and  _246
REMARK   95  A    between atoms: _246  and  _247
REMARK   96  A    between atoms: _250  and  _252
REMARK   97  A    between atoms: _252  and  _253
REMARK   98  A    between atoms: _252  and  _255
REMARK   99  A    between atoms: _255  and  _256
REMARK  100  A    between atoms: _259  and  _261
REMARK  101  A    between atoms: _261  and  _262
REMARK  102  A    between atoms: _261  and  _264
REMARK  103  A    between atoms: _264  and  _265
REMARK  104  A    between atoms: _270  and  _272
REMARK  105  A    between atoms: _272  and  _273
REMARK  106  A    between atoms: _272  and  _275
REMARK  107  A    between atoms: _275  and  _276
REMARK  108  A    between atoms: _286  and  _288
REMARK  109  A    between atoms: _288  and  _289
REMARK  110  A    between atoms: _288  and  _291
REMARK  111  A    between atoms: _291  and  _292
REMARK  112  A    between atoms: _292  and  _293
REMARK  113  A    between atoms: _296  and  _298
REMARK  114  A    between atoms: _298  and  _299
REMARK  115  A    between atoms: _298  and  _301
REMARK  116  A    between atoms: _301  and  _302
REMARK  117  A    between atoms: _307  and  _308
REMARK  118  A    between atoms: _310  and  _312
REMARK  119  A    between atoms: _312  and  _313
REMARK  120  A    between atoms: _312  and  _315
REMARK  121  A    between atoms: _315  and  _316
REMARK  122  A    between atoms: _319  and  _321
REMARK  123  A    between atoms: _321  and  _322
REMARK  124  A    between atoms: _325  and  _327
REMARK  125  A    between atoms: _327  and  _328
REMARK  126  A    between atoms: _330  and  _332
REMARK  127  A    between atoms: _332  and  _333
REMARK  128  A    between atoms: _332  and  _335
REMARK  129  A    between atoms: _335  and  _336
REMARK  130  A    between atoms: _341  and  _343
REMARK  131  A    between atoms: _343  and  _344
REMARK  132  A    between atoms: _343  and  _346
REMARK  133  A    between atoms: _346  and  _347
REMARK  134  A    between atoms: _350  and  _352
REMARK  135  A    between atoms: _352  and  _353
REMARK  136  A    between atoms: _352  and  _355
REMARK  137  A    between atoms: _355  and  _356
REMARK  138  A    between atoms: _356  and  _357
REMARK  139  A    between atoms: _359  and  _361
REMARK  140  A    between atoms: _361  and  _362
REMARK  141  A    between atoms: _361  and  _364
REMARK  142  A    between atoms: _364  and  _365
REMARK  143  A    between atoms: _368  and  _370
REMARK  144  A    between atoms: _370  and  _371
REMARK  145  A    between atoms: _370  and  _373
REMARK  146  A    between atoms: _373  and  _374
REMARK  147  A    between atoms: _379  and  _380
REMARK  148  A    between atoms: _382  and  _384
REMARK  149  A    between atoms: _384  and  _385
REMARK  150  A    between atoms: _384  and  _387
REMARK  151  A    between atoms: _387  and  _388
REMARK  152  A    between atoms: _391  and  _393
REMARK  153  A    between atoms: _393  and  _394
REMARK  154  A    between atoms: _393  and  _396
REMARK  155  A    between atoms: _396  and  _397
REMARK  156  A    between atoms: _407  and  _409
REMARK  157  A    between atoms: _409  and  _410
REMARK  158  A    between atoms: _409  and  _412
REMARK  159  A    between atoms: _412  and  _413
REMARK  160  A    between atoms: _413  and  _414
REMARK  161  A    between atoms: _419  and  _421
REMARK  162  A    between atoms: _421  and  _422
REMARK  163  A    between atoms: _424  and  _426
REMARK  164  A    between atoms: _426  and  _427
REMARK  165  A    between atoms: _426  and  _429
REMARK  166  A    between atoms: _433  and  _434
REMARK  167  A    between atoms: _439  and  _441
REMARK  168  A    between atoms: _441  and  _442
REMARK  169  A    between atoms: _441  and  _444
REMARK  170  A    between atoms: _444  and  _445
REMARK  171  A    between atoms: _451  and  _453
REMARK  172  A    between atoms: _453  and  _454
REMARK  173  A    between atoms: _453  and  _456
REMARK  174  A    between atoms: _456  and  _457
REMARK  175  A    between atoms: _462  and  _463
REMARK  176  A    between atoms: _465  and  _467
REMARK  177  A    between atoms: _467  and  _468
REMARK  178  A    between atoms: _470  and  _472
REMARK  179  A    between atoms: _472  and  _473
REMARK  180  A    between atoms: _472  and  _475
REMARK  181  A    between atoms: _475  and  _476
REMARK  182  A    between atoms: _476  and  _477
REMARK  183  A    between atoms: _477  and  _478
REMARK  184  A    between atoms: _487  and  _489
REMARK  185  A    between atoms: _489  and  _490
REMARK  186  A    between atoms: _489  and  _492
REMARK  187  A    between atoms: _492  and  _493
REMARK  188  A    between atoms: _496  and  _498
REMARK  189  A    between atoms: _498  and  _499
REMARK  190  A    between atoms: _498  and  _501
REMARK  191  A    between atoms: _501  and  _502
REMARK  192  A    between atoms: _502  and  _503
REMARK  193  A    between atoms: _506  and  _508
REMARK  194  A    between atoms: _508  and  _509
REMARK  195  A    between atoms: _508  and  _511
REMARK  196  A    between atoms: _511  and  _512
REMARK  197  A    between atoms: _512  and  _513
REMARK  198  A    between atoms: _513  and  _514
REMARK  199  A    between atoms: _523  and  _525
REMARK  200  A    between atoms: _525  and  _526
REMARK  201  A    between atoms: _525  and  _528
REMARK  202  A    between atoms: _528  and  _529
REMARK  203  A    between atoms: _532  and  _534
REMARK  204  A    between atoms: _534  and  _535
REMARK  205  A    between atoms: _534  and  _537
REMARK  206  A    between atoms: _537  and  _538
REMARK  207  A    between atoms: _538  and  _539
REMARK  208  A    between atoms: _539  and  _540
REMARK  209  A    between atoms: _540  and  _541
REMARK  210  A    between atoms: _545  and  _547
REMARK  211  A    between atoms: _547  and  _548
REMARK  212  A    between atoms: _547  and  _550
REMARK  213  A    between atoms: _550  and  _551
REMARK  214  A    between atoms: _554  and  _556
REMARK  215  A    between atoms: _556  and  _557
REMARK  216  A    between atoms: _556  and  _559
REMARK  217  A    between atoms: _559  and  _560
REMARK  218  A    between atoms: _560  and  _561
REMARK  219  A    between atoms: _561  and  _562
REMARK  220  A    between atoms: _571  and  _573
REMARK  221  A    between atoms: _573  and  _574
REMARK  222  A    between atoms: _573  and  _576
REMARK  223  A    between atoms: _576  and  _577
REMARK  224  A    between atoms: _580  and  _582
REMARK  225  A    between atoms: _582  and  _583
REMARK  226  A    between atoms: _586  and  _588
REMARK  227  A    between atoms: _588  and  _589
REMARK  228  A    between atoms: _588  and  _591
REMARK  229  A    between atoms: _591  and  _592
REMARK  230  A    between atoms: _594  and  _596
REMARK  231  A    between atoms: _596  and  _597
REMARK  232  A    between atoms: _596  and  _599
REMARK  233  A    between atoms: _599  and  _600
REMARK  234  A    between atoms: _600  and  _601
REMARK  235  A    between atoms: _603  and  _605
REMARK  236  A    between atoms: _605  and  _606
REMARK  237  A    between atoms: _605  and  _608
REMARK  238  A    between atoms: _608  and  _609
REMARK  239  A    between atoms: _615  and  _617
REMARK  240  A    between atoms: _617  and  _618
REMARK  241  A    between atoms: _617  and  _620
REMARK  242  A    between atoms: _620  and  _621
REMARK  243  A    between atoms: _631  and  _633
REMARK  244  A    between atoms: _633  and  _634
REMARK  245  A    between atoms: _633  and  _636
REMARK  246  A    between atoms: _636  and  _637
REMARK  247  A    between atoms: _642  and  _644
REMARK  248  A    between atoms: _644  and  _645
REMARK  249  A    between atoms: _644  and  _647
REMARK  250  A    between atoms: _647  and  _648
REMARK  251  A    between atoms: _648  and  _649
REMARK                            x       y       z     vdW  Elec       q    Type
REMARK                         _______ _______ _______ _____ _____    ______ ____
ROOT
ATOM      1  CA  PHE A   5      14.013  43.289 110.805  0.00  0.00    +0.153 C 
ENDROOT
BRANCH   1   4
ATOM      2  C   TYR A   4      14.718  45.239 112.062  0.00  0.00    +0.241 C 
ATOM      3  O   TYR A   4      13.669  45.842 111.817  0.00  0.00    -0.273 OA
ATOM      4  N   PHE A   5      14.969  44.015 111.623  0.00  0.00    -0.297 N 
ATOM      5  H   PHE A   5      15.872  43.563 111.870  0.00  0.00    +0.150 HD
BRANCH   2   6
ATOM      6  CA  TYR A   4      15.838  45.891 112.868  0.00  0.00    +0.153 C 
BRANCH   6   9
ATOM      7  C   TYR A   3      17.667  47.074 111.746  0.00  0.00    +0.241 C 
ATOM      8  O   TYR A   3      18.507  46.339 112.260  0.00  0.00    -0.273 OA
ATOM      9  N   TYR A   4      16.375  46.964 112.010  0.00  0.00    -0.297 N 
ATOM     10  H   TYR A   4      15.717  47.657 111.599  0.00  0.00    +0.150 HD
BRANCH   7  11
ATOM     11  CA  TYR A   3      18.089  48.206 110.825  0.00  0.00    +0.153 C 
BRANCH  11  14
ATOM     12  C   GLY A   2      19.406  49.306 112.533  0.00  0.00    +0.243 C 
ATOM     13  O   GLY A   2      18.393  49.649 113.148  0.00  0.00    -0.273 OA
ATOM     14  N   TYR A   3      19.370  48.649 111.376  0.00  0.00    -0.297 N 
ATOM     15  H   TYR A   3      20.253  48.450 110.863  0.00  0.00    +0.150 HD
BRANCH  12  16
ATOM     16  CA  GLY A   2      20.777  49.666 113.077  0.00  0.00    +0.176 C 
BRANCH  16  18
ATOM     17  C   ILE A   1      21.777  51.610 112.109  0.00  0.00    +0.238 C 
ATOM     18  N   GLY A   2      21.046  51.078 113.085  0.00  0.00    -0.296 N 
ATOM     19  H   GLY A   2      20.672  51.679 113.847  0.00  0.00    +0.150 HD
ATOM     20  O   ILE A   1      22.222  50.945 111.168  0.00  0.00    -0.274 OA
BRANCH  17  21
ATOM     21  CA  ILE A   1      22.023  53.111 112.209  0.00  0.00    +0.145 C 
BRANCH  21  22
ATOM     22  N   ILE A   1      23.368  53.478 112.644  0.00  0.00    -0.238 NA
ATOM     23  H   ILE A   1      24.137  53.453 111.944  0.00  0.00    +0.142 HD
ENDBRANCH  21  22
BRANCH  21  24
ATOM     24  CB  ILE A   1      21.731  53.774 110.855  0.00  0.00    +0.025 C 
ATOM     25  CG2 ILE A   1      20.301  53.420 110.407  0.00  0.00    +0.002 C 
BRANCH  24  26
ATOM     26  CG1 ILE A   1      21.997  55.285 110.984  0.00  0.00    +0.002 C 
ATOM     27  CD1 ILE A   1      21.820  56.089 109.728  0.00  0.00    +0.000 C 
ENDBRANCH  24  26
ENDBRANCH  21  24
ENDBRANCH  17  21
ENDBRANCH  16  18
ENDBRANCH  12  16
ENDBRANCH  11  14
BRANCH  11  28
ATOM     28  CB  TYR A   3      18.232  47.684 109.378  0.00  0.00    +0.055 C 
BRANCH  28  29
ATOM     29  CG  TYR A   3      18.263  48.786 108.341  0.00  0.00    -0.020 A 
ATOM     30  CD2 TYR A   3      19.425  49.520 108.105  0.00  0.00    -0.001 A 
ATOM     31  CE2 TYR A   3      19.432  50.625 107.241  0.00  0.00    +0.036 A 
ATOM     32  CZ  TYR A   3      18.259  50.992 106.584  0.00  0.00    +0.134 A 
ATOM     33  CE1 TYR A   3      17.093  50.263 106.801  0.00  0.00    +0.036 A 
ATOM     34  CD1 TYR A   3      17.102  49.168 107.678  0.00  0.00    -0.001 A 
BRANCH  32  35
ATOM     35  OH  TYR A   3      18.251  52.066 105.700  0.00  0.00    -0.506 OA
ATOM     36  HH  TYR A   3      17.598  52.743 106.010  0.00  0.00    +0.292 HD
ENDBRANCH  32  35
ENDBRANCH  28  29
ENDBRANCH  11  28
ENDBRANCH   7  11
ENDBRANCH   6   9
BRANCH   6  37
ATOM     37  CB  TYR A   4      15.287  46.464 114.176  0.00  0.00    +0.055 C 
BRANCH  37  38
ATOM     38  CG  TYR A   4      14.623  45.451 115.091  0.00  0.00    -0.020 A 
ATOM     39  CD2 TYR A   4      15.374  44.553 115.835  0.00  0.00    -0.001 A 
ATOM     40  CE2 TYR A   4      14.758  43.635 116.713  0.00  0.00    +0.036 A 
ATOM     41  CZ  TYR A   4      13.372  43.621 116.832  0.00  0.00    +0.134 A 
ATOM     42  CE1 TYR A   4      12.595  44.500 116.093  0.00  0.00    +0.036 A 
ATOM     43  CD1 TYR A   4      13.225  45.414 115.226  0.00  0.00    -0.001 A 
BRANCH  41  44
ATOM     44  OH  TYR A   4      12.753  42.737 117.689  0.00  0.00    -0.506 OA
ATOM     45  HH  TYR A   4      13.438  42.182 118.140  0.00  0.00    +0.292 HD
ENDBRANCH  41  44
ENDBRANCH  37  38
ENDBRANCH   6  37
ENDBRANCH   2   6
ENDBRANCH   1   4
BRANCH   1  46
ATOM     46  C   PHE A   5      13.263  42.278 111.658  0.00  0.00    +0.241 C 
ATOM     47  O   PHE A   5      13.855  41.474 112.381  0.00  0.00    -0.273 OA
ATOM     48  N   ILE A   6      11.948  42.353 111.582  0.00  0.00    -0.297 N 
ATOM     49  H   ILE A   6      11.517  43.075 110.970  0.00  0.00    +0.150 HD
BRANCH  48  50
ATOM     50  CA  ILE A   6      11.090  41.457 112.328  0.00  0.00    +0.149 C 
BRANCH  50  51
ATOM     51  C   ILE A   6      10.011  41.099 111.309  0.00  0.00    +0.244 C 
ATOM     52  O   ILE A   6       9.218  41.941 110.908  0.00  0.00    -0.273 OA
ATOM     53  N   PRO A   7      10.040  39.859 110.806  0.00  0.00    -0.272 N 
ATOM     54  CD  PRO A   7      11.051  38.809 111.007  0.00  0.00    +0.094 C 
ATOM     55  CG  PRO A   7      10.340  37.588 110.497  0.00  0.00    +0.024 C 
ATOM     56  CB  PRO A   7       9.580  38.095 109.341  0.00  0.00    +0.031 C 
ATOM     57  CA  PRO A   7       9.043  39.438 109.824  0.00  0.00    +0.152 C 
BRANCH  57  58
ATOM     58  C   PRO A   7       7.634  39.348 110.429  0.00  0.00    +0.241 C 
ATOM     59  O   PRO A   7       7.468  39.160 111.635  0.00  0.00    -0.273 OA
ATOM     60  N   THR A   8       6.634  39.497 109.573  0.00  0.00    -0.295 N 
ATOM     61  H   THR A   8       6.856  39.640 108.567  0.00  0.00    +0.150 HD
BRANCH  60  62
ATOM     62  CA  THR A   8       5.238  39.469 109.982  0.00  0.00    +0.176 C 
BRANCH  62  63
ATOM     63  C   THR A   8       4.826  38.330 110.903  0.00  0.00    +0.243 C 
ATOM     64  O   THR A   8       4.097  38.552 111.870  0.00  0.00    -0.273 OA
ATOM     65  N   ASN A   9       5.287  37.115 110.630  0.00  0.00    -0.297 N 
ATOM     66  H   ASN A   9       5.916  36.959 109.816  0.00  0.00    +0.150 HD
BRANCH  65  67
ATOM     67  CA  ASN A   9       4.899  36.004 111.487  0.00  0.00    +0.158 C 
BRANCH  67  68
ATOM     68  C   ASN A   9       5.385  36.234 112.915  0.00  0.00    +0.241 C 
ATOM     69  O   ASN A   9       4.687  35.876 113.873  0.00  0.00    -0.273 OA
ATOM     70  N   GLN A  10       6.550  36.862 113.076  0.00  0.00    -0.298 N 
ATOM     71  H   GLN A  10       7.093  37.165 112.243  0.00  0.00    +0.150 HD
BRANCH  70  72
ATOM     72  CA  GLN A  10       7.067  37.126 114.416  0.00  0.00    +0.137 C 
BRANCH  72  73
ATOM     73  C   GLN A  10       6.324  38.235 115.136  0.00  0.00    +0.227 C 
ATOM     74  O   GLN A  10       6.213  38.216 116.362  0.00  0.00    -0.286 OA
ENDBRANCH  72  73
BRANCH  72  75
ATOM     75  CB  GLN A  10       8.564  37.432 114.372  0.00  0.00    +0.037 C 
BRANCH  75  76
ATOM     76  CG  GLN A  10       9.387  36.158 114.218  0.00  0.00    +0.087 C 
BRANCH  76  77
ATOM     77  CD  GLN A  10      10.877  36.401 114.185  0.00  0.00    +0.219 C 
ATOM     78  OE1 GLN A  10      11.399  37.258 114.898  0.00  0.00    -0.275 OA
ATOM     79  NE2 GLN A  10      11.576  35.625 113.372  0.00  0.00    -0.329 N 
ATOM     80 HE21 GLN A  10      12.610  35.726 113.317  0.00  0.00    +0.145 HD
ATOM     81 HE22 GLN A  10      11.092  34.914 112.788  0.00  0.00    +0.145 HD
ENDBRANCH  76  77
ENDBRANCH  75  76
ENDBRANCH  72  75
ENDBRANCH  70  72
ENDBRANCH  67  68
BRANCH  67  82
ATOM     82  CB  ASN A   9       5.397  34.657 110.920  0.00  0.00    +0.114 C 
BRANCH  82  83
ATOM     83  CG  ASN A   9       6.899  34.422 111.124  0.00  0.00    +0.222 C 
ATOM     84  OD1 ASN A   9       7.334  33.912 112.166  0.00  0.00    -0.275 OA
ATOM     85  ND2 ASN A   9       7.696  34.780 110.118  0.00  0.00    -0.329 N 
ATOM     86 HD21 ASN A   9       8.723  34.634 110.191  0.00  0.00    +0.145 HD
ATOM     87 HD22 ASN A   9       7.291  35.205 109.260  0.00  0.00    +0.145 HD
ENDBRANCH  82  83
ENDBRANCH  67  82
ENDBRANCH  65  67
ENDBRANCH  62  63
BRANCH  62  88
ATOM     88  CB  THR A   8       4.351  39.472 108.748  0.00  0.00    +0.137 C 
ATOM     89  CG2 THR A   8       2.871  39.601 109.135  0.00  0.00    +0.034 C 
BRANCH  88  90
ATOM     90  OG1 THR A   8       4.722  40.588 107.937  0.00  0.00    -0.382 OA
ATOM     91  HG1 THR A   8       4.595  41.425 108.451  0.00  0.00    +0.210 HD
ENDBRANCH  88  90
ENDBRANCH  62  88
ENDBRANCH  60  62
ENDBRANCH  57  58
ENDBRANCH  50  51
BRANCH  50  92
ATOM     92  CB  ILE A   6      10.508  42.159 113.623  0.00  0.00    +0.027 C 
ATOM     93  CG2 ILE A   6       9.711  43.394 113.270  0.00  0.00    +0.002 C 
BRANCH  92  94
ATOM     94  CG1 ILE A   6       9.643  41.173 114.420  0.00  0.00    +0.002 C 
ATOM     95  CD1 ILE A   6      10.440  40.215 115.293  0.00  0.00    +0.000 C 
ENDBRANCH  92  94
ENDBRANCH  50  92
ENDBRANCH  48  50
ENDBRANCH   1  46
BRANCH   1  96
ATOM     96  CB  PHE A   5      14.739  42.576 109.662  0.00  0.00    +0.055 C 
BRANCH  96  97
ATOM     97  CG  PHE A   5      13.826  41.825 108.725  0.00  0.00    -0.020 A 
ATOM     98  CD2 PHE A   5      13.968  40.450 108.548  0.00  0.00    -0.004 A 
ATOM     99  CE2 PHE A   5      13.110  39.740 107.695  0.00  0.00    -0.000 A 
ATOM    100  CZ  PHE A   5      12.100  40.415 107.013  0.00  0.00    -0.000 A 
ATOM    101  CE1 PHE A   5      11.958  41.792 107.184  0.00  0.00    -0.000 A 
ATOM    102  CD1 PHE A   5      12.823  42.484 108.039  0.00  0.00    -0.004 A 
ENDBRANCH  96  97
ENDBRANCH   1  96
TORSDOF 38
REMARK  Name = ../refined-set-2016/1ogg/1ogg_pocket.pdb
REMARK  251 active torsions:
REMARK  status: ('A' for Active; 'I' for Inactive)
REMARK    1  A    between atoms: _1  and  _3
REMARK    2  A    between atoms: _3  and  _4
REMARK    3  A    between atoms: _3  and  _6
REMARK    4  A    between atoms: _6  and  _7
REMARK    5  A    between atoms: _10  and  _12
REMARK    6  A    between atoms: _12  and  _13
REMARK    7  A    between atoms: _15  and  _17
REMARK    8  A    between atoms: _17  and  _18
REMARK    9  A    between atoms: _17  and  _20
REMARK   10  A    between atoms: _20  and  _21
REMARK   11  A    between atoms: _26  and  _27
REMARK   12  A    between atoms: _29  and  _31
REMARK   13  A    between atoms: _31  and  _32
REMARK   14  A    between atoms: _31  and  _34
REMARK   15  A    between atoms: _34  and  _35
REMARK   16  A    between atoms: _40  and  _41
REMARK   17  A    between atoms: _43  and  _45
REMARK   18  A    between atoms: _45  and  _46
REMARK   19  A    between atoms: _45  and  _48
REMARK   20  A    between atoms: _48  and  _49
REMARK   21  A    between atoms: _55  and  _57
REMARK   22  A    between atoms: _57  and  _58
REMARK   23  A    between atoms: _57  and  _60
REMARK   24  A    between atoms: _60  and  _61
REMARK   25  A    between atoms: _65  and  _66
REMARK   26  A    between atoms: _71  and  _73
REMARK   27  A    between atoms: _73  and  _74
REMARK   28  A    between atoms: _73  and  _76
REMARK   29  A    between atoms: _76  and  _77
REMARK   30  A    between atoms: _80  and  _82
REMARK   31  A    between atoms: _82  and  _83
REMARK   32  A    between atoms: _82  and  _85
REMARK   33  A    between atoms: _85  and  _86
REMARK   34  A    between atoms: _91  and  _93
REMARK   35  A    between atoms: _93  and  _94
REMARK   36  A    between atoms: _93  and  _96
REMARK   37  A    between atoms: _96  and  _97
REMARK   38  A    between atoms: _97  and  _98
REMARK   39  A    between atoms: _103  and  _105
REMARK   40  A    between atoms: _105  and  _106
REMARK   41  A    between atoms: _105  and  _108
REMARK   42  A    between atoms: _108  and  _109
REMARK   43  A    between atoms: _114  and  _116
REMARK   44  A    between atoms: _116  and  _117
REMARK   45  A    between atoms: _116  and  _119
REMARK   46  A    between atoms: _119  and  _120
REMARK   47  A    between atoms: _122  and  _124
REMARK   48  A    between atoms: _124  and  _125
REMARK   49  A    between atoms: _124  and  _127
REMARK   50  A    between atoms: _127  and  _128
REMARK   51  A    between atoms: _134  and  _136
REMARK   52  A    between atoms: _136  and  _137
REMARK   53  A    between atoms: _136  and  _139
REMARK   54  A    between atoms: _139  and  _140
REMARK   55  A    between atoms: _143  and  _145
REMARK   56  A    between atoms: _145  and  _146
REMARK   57  A    between atoms: _145  and  _148
REMARK   58  A    between atoms: _148  and  _149
REMARK   59  A    between atoms: _151  and  _153
REMARK   60  A    between atoms: _153  and  _154
REMARK   61  A    between atoms: _153  and  _156
REMARK   62  A    between atoms: _156  and  _157
REMARK   63  A    between atoms: _160  and  _162
REMARK   64  A    between atoms: _162  and  _163
REMARK   65  A    between atoms: _165  and  _167
REMARK   66  A    between atoms: _167  and  _168
REMARK   67  A    between atoms: _170  and  _172
REMARK   68  A    between atoms: _172  and  _173
REMARK   69  A    between atoms: _172  and  _175
REMARK   70  A    between atoms: _175  and  _176
REMARK   71  A    between atoms: _186  and  _188
REMARK   72  A    between atoms: _188  and  _189
REMARK   73  A    between atoms: _188  and  _191
REMARK   74  A    between atoms: _191  and  _192
REMARK   75  A    between atoms: _197  and  _198
REMARK   76  A    between atoms: _200  and  _202
REMARK   77  A    between atoms: _202  and  _203
REMARK   78  A    between atoms: _202  and  _205
REMARK   79  A    between atoms: _205  and  _206
REMARK   80  A    between atoms: _211  and  _212
REMARK   81  A    between atoms: _214  and  _216
REMARK   82  A    between atoms: _216  and  _217
REMARK   83  A    between atoms: _216  and  _219
REMARK   84  A    between atoms: _219  and  _220
REMARK   85  A    between atoms: _222  and  _224
REMARK   86  A    between atoms: _224  and  _225
REMARK   87  A    between atoms: _224  and  _227
REMARK   88  A    between atoms: _227  and  _228
REMARK   89  A    between atoms: _233  and  _235
REMARK   90  A    between atoms: _235  and  _236
REMARK   91  A    between atoms: _235  and  _238
REMARK   92  A    between atoms: _241  and  _243
REMARK   93  A    between atoms: _243  and  _244
REMARK   94  A    between atoms: _243  and  _246
REMARK   95  A    between atoms: _246  and  _247
REMARK   96  A    between atoms: _250  and  _252
REMARK   97  A    between atoms: _252  and  _253
REMARK   98  A    between atoms: _252  and  _255
REMARK   99  A    between atoms: _255  and  _256
REMARK  100  A    between atoms: _259  and  _261
REMARK  101  A    between atoms: _261  and  _262
REMARK  102  A    between atoms: _261  and  _264
REMARK  103  A    between atoms: _264  and  _265
REMARK  104  A    between atoms: _270  and  _272
REMARK  105  A    between atoms: _272  and  _273
REMARK  106  A    between atoms: _272  and  _275
REMARK  107  A    between atoms: _275  and  _276
REMARK  108  A    between atoms: _286  and  _288
REMARK  109  A    between atoms: _288  and  _289
REMARK  110  A    between atoms: _288  and  _291
REMARK  111  A    between atoms: _291  and  _292
REMARK  112  A    between atoms: _292  and  _293
REMARK  113  A    between atoms: _296  and  _298
REMARK  114  A    between atoms: _298  and  _299
REMARK  115  A    between atoms: _298  and  _301
REMARK  116  A    between atoms: _301  and  _302
REMARK  117  A    between atoms: _307  and  _308
REMARK  118  A    between atoms: _310  and  _312
REMARK  119  A    between atoms: _312  and  _313
REMARK  120  A    between atoms: _312  and  _315
REMARK  121  A    between atoms: _315  and  _316
REMARK  122  A    between atoms: _319  and  _321
REMARK  123  A    between atoms: _321  and  _322
REMARK  124  A    between atoms: _325  and  _327
REMARK  125  A    between atoms: _327  and  _328
REMARK  126  A    between atoms: _330  and  _332
REMARK  127  A    between atoms: _332  and  _333
REMARK  128  A    between atoms: _332  and  _335
REMARK  129  A    between atoms: _335  and  _336
REMARK  130  A    between atoms: _341  and  _343
REMARK  131  A    between atoms: _343  and  _344
REMARK  132  A    between atoms: _343  and  _346
REMARK  133  A    between atoms: _346  and  _347
REMARK  134  A    between atoms: _350  and  _352
REMARK  135  A    between atoms: _352  and  _353
REMARK  136  A    between atoms: _352  and  _355
REMARK  137  A    between atoms: _355  and  _356
REMARK  138  A    between atoms: _356  and  _357
REMARK  139  A    between atoms: _359  and  _361
REMARK  140  A    between atoms: _361  and  _362
REMARK  141  A    between atoms: _361  and  _364
REMARK  142  A    between atoms: _364  and  _365
REMARK  143  A    between atoms: _368  and  _370
REMARK  144  A    between atoms: _370  and  _371
REMARK  145  A    between atoms: _370  and  _373
REMARK  146  A    between atoms: _373  and  _374
REMARK  147  A    between atoms: _379  and  _380
REMARK  148  A    between atoms: _382  and  _384
REMARK  149  A    between atoms: _384  and  _385
REMARK  150  A    between atoms: _384  and  _387
REMARK  151  A    between atoms: _387  and  _388
REMARK  152  A    between atoms: _391  and  _393
REMARK  153  A    between atoms: _393  and  _394
REMARK  154  A    between atoms: _393  and  _396
REMARK  155  A    between atoms: _396  and  _397
REMARK  156  A    between atoms: _407  and  _409
REMARK  157  A    between atoms: _409  and  _410
REMARK  158  A    between atoms: _409  and  _412
REMARK  159  A    between atoms: _412  and  _413
REMARK  160  A    between atoms: _413  and  _414
REMARK  161  A    between atoms: _419  and  _421
REMARK  162  A    between atoms: _421  and  _422
REMARK  163  A    between atoms: _424  and  _426
REMARK  164  A    between atoms: _426  and  _427
REMARK  165  A    between atoms: _426  and  _429
REMARK  166  A    between atoms: _433  and  _434
REMARK  167  A    between atoms: _439  and  _441
REMARK  168  A    between atoms: _441  and  _442
REMARK  169  A    between atoms: _441  and  _444
REMARK  170  A    between atoms: _444  and  _445
REMARK  171  A    between atoms: _451  and  _453
REMARK  172  A    between atoms: _453  and  _454
REMARK  173  A    between atoms: _453  and  _456
REMARK  174  A    between atoms: _456  and  _457
REMARK  175  A    between atoms: _462  and  _463
REMARK  176  A    between atoms: _465  and  _467
REMARK  177  A    between atoms: _467  and  _468
REMARK  178  A    between atoms: _470  and  _472
REMARK  179  A    between atoms: _472  and  _473
REMARK  180  A    between atoms: _472  and  _475
REMARK  181  A    between atoms: _475  and  _476
REMARK  182  A    between atoms: _476  and  _477
REMARK  183  A    between atoms: _477  and  _478
REMARK  184  A    between atoms: _487  and  _489
REMARK  185  A    between atoms: _489  and  _490
REMARK  186  A    between atoms: _489  and  _492
REMARK  187  A    between atoms: _492  and  _493
REMARK  188  A    between atoms: _496  and  _498
REMARK  189  A    between atoms: _498  and  _499
REMARK  190  A    between atoms: _498  and  _501
REMARK  191  A    between atoms: _501  and  _502
REMARK  192  A    between atoms: _502  and  _503
REMARK  193  A    between atoms: _506  and  _508
REMARK  194  A    between atoms: _508  and  _509
REMARK  195  A    between atoms: _508  and  _511
REMARK  196  A    between atoms: _511  and  _512
REMARK  197  A    between atoms: _512  and  _513
REMARK  198  A    between atoms: _513  and  _514
REMARK  199  A    between atoms: _523  and  _525
REMARK  200  A    between atoms: _525  and  _526
REMARK  201  A    between atoms: _525  and  _528
REMARK  202  A    between atoms: _528  and  _529
REMARK  203  A    between atoms: _532  and  _534
REMARK  204  A    between atoms: _534  and  _535
REMARK  205  A    between atoms: _534  and  _537
REMARK  206  A    between atoms: _537  and  _538
REMARK  207  A    between atoms: _538  and  _539
REMARK  208  A    between atoms: _539  and  _540
REMARK  209  A    between atoms: _540  and  _541
REMARK  210  A    between atoms: _545  and  _547
REMARK  211  A    between atoms: _547  and  _548
REMARK  212  A    between atoms: _547  and  _550
REMARK  213  A    between atoms: _550  and  _551
REMARK  214  A    between atoms: _554  and  _556
REMARK  215  A    between atoms: _556  and  _557
REMARK  216  A    between atoms: _556  and  _559
REMARK  217  A    between atoms: _559  and  _560
REMARK  218  A    between atoms: _560  and  _561
REMARK  219  A    between atoms: _561  and  _562
REMARK  220  A    between atoms: _571  and  _573
REMARK  221  A    between atoms: _573  and  _574
REMARK  222  A    between atoms: _573  and  _576
REMARK  223  A    between atoms: _576  and  _577
REMARK  224  A    between atoms: _580  and  _582
REMARK  225  A    between atoms: _582  and  _583
REMARK  226  A    between atoms: _586  and  _588
REMARK  227  A    between atoms: _588  and  _589
REMARK  228  A    between atoms: _588  and  _591
REMARK  229  A    between atoms: _591  and  _592
REMARK  230  A    between atoms: _594  and  _596
REMARK  231  A    between atoms: _596  and  _597
REMARK  232  A    between atoms: _596  and  _599
REMARK  233  A    between atoms: _599  and  _600
REMARK  234  A    between atoms: _600  and  _601
REMARK  235  A    between atoms: _603  and  _605
REMARK  236  A    between atoms: _605  and  _606
REMARK  237  A    between atoms: _605  and  _608
REMARK  238  A    between atoms: _608  and  _609
REMARK  239  A    between atoms: _615  and  _617
REMARK  240  A    between atoms: _617  and  _618
REMARK  241  A    between atoms: _617  and  _620
REMARK  242  A    between atoms: _620  and  _621
REMARK  243  A    between atoms: _631  and  _633
REMARK  244  A    between atoms: _633  and  _634
REMARK  245  A    between atoms: _633  and  _636
REMARK  246  A    between atoms: _636  and  _637
REMARK  247  A    between atoms: _642  and  _644
REMARK  248  A    between atoms: _644  and  _645
REMARK  249  A    between atoms: _644  and  _647
REMARK  250  A    between atoms: _647  and  _648
REMARK  251  A    between atoms: _648  and  _649
REMARK                            x       y       z     vdW  Elec       q    Type
REMARK                         _______ _______ _______ _____ _____    ______ ____
ROOT
ATOM      1  CB  ASN A   1      15.952  51.548 110.095  0.00  0.00    +0.110 C 
ENDROOT
BRANCH   1   2
ATOM      2  CG  ASN A   1      16.645  52.919 109.895  0.00  0.00    +0.221 C 
ATOM      3  OD1 ASN A   1      16.702  53.747 110.795  0.00  0.00    -0.275 OA
ATOM      4  ND2 ASN A   1      17.196  53.131 108.713  0.00  0.00    -0.329 N 
ATOM      5 HD21 ASN A   1      17.697  54.023 108.525  0.00  0.00    +0.145 HD
ATOM      6 HD22 ASN A   1      17.129  52.406 107.970  0.00  0.00    +0.145 HD
ENDBRANCH   1   2
BRANCH   1   7
ATOM      7  CA  ASN A   1      15.175  51.438 111.423  0.00  0.00    +0.142 C 
BRANCH   7   8
ATOM      8  N   ASN A   1      16.097  51.371 112.561  0.00  0.00    -0.239 NA
ATOM      9  H   ASN A   1      16.970  50.812 112.477  0.00  0.00    +0.142 HD
ENDBRANCH   7   8
BRANCH   7  10
ATOM     10  C   ASN A   1      14.299  50.186 111.409  0.00  0.00    +0.225 C 
ATOM     11  O   ASN A   1      14.721  49.104 110.979  0.00  0.00    -0.287 OA
ENDBRANCH   7  10
ENDBRANCH   1   7
TORSDOF 4
REMARK  Name = ../refined-set-2016/1ogg/1ogg_pocket.pdb
REMARK  251 active torsions:
REMARK  status: ('A' for Active; 'I' for Inactive)
REMARK    1  A    between atoms: _1  and  _3
REMARK    2  A    between atoms: _3  and  _4
REMARK    3  A    between atoms: _3  and  _6
REMARK    4  A    between atoms: _6  and  _7
REMARK    5  A    between atoms: _10  and  _12
REMARK    6  A    between atoms: _12  and  _13
REMARK    7  A    between atoms: _15  and  _17
REMARK    8  A    between atoms: _17  and  _18
REMARK    9  A    between atoms: _17  and  _20
REMARK   10  A    between atoms: _20  and  _21
REMARK   11  A    between atoms: _26  and  _27
REMARK   12  A    between atoms: _29  and  _31
REMARK   13  A    between atoms: _31  and  _32
REMARK   14  A    between atoms: _31  and  _34
REMARK   15  A    between atoms: _34  and  _35
REMARK   16  A    between atoms: _40  and  _41
REMARK   17  A    between atoms: _43  and  _45
REMARK   18  A    between atoms: _45  and  _46
REMARK   19  A    between atoms: _45  and  _48
REMARK   20  A    between atoms: _48  and  _49
REMARK   21  A    between atoms: _55  and  _57
REMARK   22  A    between atoms: _57  and  _58
REMARK   23  A    between atoms: _57  and  _60
REMARK   24  A    between atoms: _60  and  _61
REMARK   25  A    between atoms: _65  and  _66
REMARK   26  A    between atoms: _71  and  _73
REMARK   27  A    between atoms: _73  and  _74
REMARK   28  A    between atoms: _73  and  _76
REMARK   29  A    between atoms: _76  and  _77
REMARK   30  A    between atoms: _80  and  _82
REMARK   31  A    between atoms: _82  and  _83
REMARK   32  A    between atoms: _82  and  _85
REMARK   33  A    between atoms: _85  and  _86
REMARK   34  A    between atoms: _91  and  _93
REMARK   35  A    between atoms: _93  and  _94
REMARK   36  A    between atoms: _93  and  _96
REMARK   37  A    between atoms: _96  and  _97
REMARK   38  A    between atoms: _97  and  _98
REMARK   39  A    between atoms: _103  and  _105
REMARK   40  A    between atoms: _105  and  _106
REMARK   41  A    between atoms: _105  and  _108
REMARK   42  A    between atoms: _108  and  _109
REMARK   43  A    between atoms: _114  and  _116
REMARK   44  A    between atoms: _116  and  _117
REMARK   45  A    between atoms: _116  and  _119
REMARK   46  A    between atoms: _119  and  _120
REMARK   47  A    between atoms: _122  and  _124
REMARK   48  A    between atoms: _124  and  _125
REMARK   49  A    between atoms: _124  and  _127
REMARK   50  A    between atoms: _127  and  _128
REMARK   51  A    between atoms: _134  and  _136
REMARK   52  A    between atoms: _136  and  _137
REMARK   53  A    between atoms: _136  and  _139
REMARK   54  A    between atoms: _139  and  _140
REMARK   55  A    between atoms: _143  and  _145
REMARK   56  A    between atoms: _145  and  _146
REMARK   57  A    between atoms: _145  and  _148
REMARK   58  A    between atoms: _148  and  _149
REMARK   59  A    between atoms: _151  and  _153
REMARK   60  A    between atoms: _153  and  _154
REMARK   61  A    between atoms: _153  and  _156
REMARK   62  A    between atoms: _156  and  _157
REMARK   63  A    between atoms: _160  and  _162
REMARK   64  A    between atoms: _162  and  _163
REMARK   65  A    between atoms: _165  and  _167
REMARK   66  A    between atoms: _167  and  _168
REMARK   67  A    between atoms: _170  and  _172
REMARK   68  A    between atoms: _172  and  _173
REMARK   69  A    between atoms: _172  and  _175
REMARK   70  A    between atoms: _175  and  _176
REMARK   71  A    between atoms: _186  and  _188
REMARK   72  A    between atoms: _188  and  _189
REMARK   73  A    between atoms: _188  and  _191
REMARK   74  A    between atoms: _191  and  _192
REMARK   75  A    between atoms: _197  and  _198
REMARK   76  A    between atoms: _200  and  _202
REMARK   77  A    between atoms: _202  and  _203
REMARK   78  A    between atoms: _202  and  _205
REMARK   79  A    between atoms: _205  and  _206
REMARK   80  A    between atoms: _211  and  _212
REMARK   81  A    between atoms: _214  and  _216
REMARK   82  A    between atoms: _216  and  _217
REMARK   83  A    between atoms: _216  and  _219
REMARK   84  A    between atoms: _219  and  _220
REMARK   85  A    between atoms: _222  and  _224
REMARK   86  A    between atoms: _224  and  _225
REMARK   87  A    between atoms: _224  and  _227
REMARK   88  A    between atoms: _227  and  _228
REMARK   89  A    between atoms: _233  and  _235
REMARK   90  A    between atoms: _235  and  _236
REMARK   91  A    between atoms: _235  and  _238
REMARK   92  A    between atoms: _241  and  _243
REMARK   93  A    between atoms: _243  and  _244
REMARK   94  A    between atoms: _243  and  _246
REMARK   95  A    between atoms: _246  and  _247
REMARK   96  A    between atoms: _250  and  _252
REMARK   97  A    between atoms: _252  and  _253
REMARK   98  A    between atoms: _252  and  _255
REMARK   99  A    between atoms: _255  and  _256
REMARK  100  A    between atoms: _259  and  _261
REMARK  101  A    between atoms: _261  and  _262
REMARK  102  A    between atoms: _261  and  _264
REMARK  103  A    between atoms: _264  and  _265
REMARK  104  A    between atoms: _270  and  _272
REMARK  105  A    between atoms: _272  and  _273
REMARK  106  A    between atoms: _272  and  _275
REMARK  107  A    between atoms: _275  and  _276
REMARK  108  A    between atoms: _286  and  _288
REMARK  109  A    between atoms: _288  and  _289
REMARK  110  A    between atoms: _288  and  _291
REMARK  111  A    between atoms: _291  and  _292
REMARK  112  A    between atoms: _292  and  _293
REMARK  113  A    between atoms: _296  and  _298
REMARK  114  A    between atoms: _298  and  _299
REMARK  115  A    between atoms: _298  and  _301
REMARK  116  A    between atoms: _301  and  _302
REMARK  117  A    between atoms: _307  and  _308
REMARK  118  A    between atoms: _310  and  _312
REMARK  119  A    between atoms: _312  and  _313
REMARK  120  A    between atoms: _312  and  _315
REMARK  121  A    between atoms: _315  and  _316
REMARK  122  A    between atoms: _319  and  _321
REMARK  123  A    between atoms: _321  and  _322
REMARK  124  A    between atoms: _325  and  _327
REMARK  125  A    between atoms: _327  and  _328
REMARK  126  A    between atoms: _330  and  _332
REMARK  127  A    between atoms: _332  and  _333
REMARK  128  A    between atoms: _332  and  _335
REMARK  129  A    between atoms: _335  and  _336
REMARK  130  A    between atoms: _341  and  _343
REMARK  131  A    between atoms: _343  and  _344
REMARK  132  A    between atoms: _343  and  _346
REMARK  133  A    between atoms: _346  and  _347
REMARK  134  A    between atoms: _350  and  _352
REMARK  135  A    between atoms: _352  and  _353
REMARK  136  A    between atoms: _352  and  _355
REMARK  137  A    between atoms: _355  and  _356
REMARK  138  A    between atoms: _356  and  _357
REMARK  139  A    between atoms: _359  and  _361
REMARK  140  A    between atoms: _361  and  _362
REMARK  141  A    between atoms: _361  and  _364
REMARK  142  A    between atoms: _364  and  _365
REMARK  143  A    between atoms: _368  and  _370
REMARK  144  A    between atoms: _370  and  _371
REMARK  145  A    between atoms: _370  and  _373
REMARK  146  A    between atoms: _373  and  _374
REMARK  147  A    between atoms: _379  and  _380
REMARK  148  A    between atoms: _382  and  _384
REMARK  149  A    between atoms: _384  and  _385
REMARK  150  A    between atoms: _384  and  _387
REMARK  151  A    between atoms: _387  and  _388
REMARK  152  A    between atoms: _391  and  _393
REMARK  153  A    between atoms: _393  and  _394
REMARK  154  A    between atoms: _393  and  _396
REMARK  155  A    between atoms: _396  and  _397
REMARK  156  A    between atoms: _407  and  _409
REMARK  157  A    between atoms: _409  and  _410
REMARK  158  A    between atoms: _409  and  _412
REMARK  159  A    between atoms: _412  and  _413
REMARK  160  A    between atoms: _413  and  _414
REMARK  161  A    between atoms: _419  and  _421
REMARK  162  A    between atoms: _421  and  _422
REMARK  163  A    between atoms: _424  and  _426
REMARK  164  A    between atoms: _426  and  _427
REMARK  165  A    between atoms: _426  and  _429
REMARK  166  A    between atoms: _433  and  _434
REMARK  167  A    between atoms: _439  and  _441
REMARK  168  A    between atoms: _441  and  _442
REMARK  169  A    between atoms: _441  and  _444
REMARK  170  A    between atoms: _444  and  _445
REMARK  171  A    between atoms: _451  and  _453
REMARK  172  A    between atoms: _453  and  _454
REMARK  173  A    between atoms: _453  and  _456
REMARK  174  A    between atoms: _456  and  _457
REMARK  175  A    between atoms: _462  and  _463
REMARK  176  A    between atoms: _465  and  _467
REMARK  177  A    between atoms: _467  and  _468
REMARK  178  A    between atoms: _470  and  _472
REMARK  179  A    between atoms: _472  and  _473
REMARK  180  A    between atoms: _472  and  _475
REMARK  181  A    between atoms: _475  and  _476
REMARK  182  A    between atoms: _476  and  _477
REMARK  183  A    between atoms: _477  and  _478
REMARK  184  A    between atoms: _487  and  _489
REMARK  185  A    between atoms: _489  and  _490
REMARK  186  A    between atoms: _489  and  _492
REMARK  187  A    between atoms: _492  and  _493
REMARK  188  A    between atoms: _496  and  _498
REMARK  189  A    between atoms: _498  and  _499
REMARK  190  A    between atoms: _498  and  _501
REMARK  191  A    between atoms: _501  and  _502
REMARK  192  A    between atoms: _502  and  _503
REMARK  193  A    between atoms: _506  and  _508
REMARK  194  A    between atoms: _508  and  _509
REMARK  195  A    between atoms: _508  and  _511
REMARK  196  A    between atoms: _511  and  _512
REMARK  197  A    between atoms: _512  and  _513
REMARK  198  A    between atoms: _513  and  _514
REMARK  199  A    between atoms: _523  and  _525
REMARK  200  A    between atoms: _525  and  _526
REMARK  201  A    between atoms: _525  and  _528
REMARK  202  A    between atoms: _528  and  _529
REMARK  203  A    between atoms: _532  and  _534
REMARK  204  A    between atoms: _534  and  _535
REMARK  205  A    between atoms: _534  and  _537
REMARK  206  A    between atoms: _537  and  _538
REMARK  207  A    between atoms: _538  and  _539
REMARK  208  A    between atoms: _539  and  _540
REMARK  209  A    between atoms: _540  and  _541
REMARK  210  A    between atoms: _545  and  _547
REMARK  211  A    between atoms: _547  and  _548
REMARK  212  A    between atoms: _547  and  _550
REMARK  213  A    between atoms: _550  and  _551
REMARK  214  A    between atoms: _554  and  _556
REMARK  215  A    between atoms: _556  and  _557
REMARK  216  A    between atoms: _556  and  _559
REMARK  217  A    between atoms: _559  and  _560
REMARK  218  A    between atoms: _560  and  _561
REMARK  219  A    between atoms: _561  and  _562
REMARK  220  A    between atoms: _571  and  _573
REMARK  221  A    between atoms: _573  and  _574
REMARK  222  A    between atoms: _573  and  _576
REMARK  223  A    between atoms: _576  and  _577
REMARK  224  A    between atoms: _580  and  _582
REMARK  225  A    between atoms: _582  and  _583
REMARK  226  A    between atoms: _586  and  _588
REMARK  227  A    between atoms: _588  and  _589
REMARK  228  A    between atoms: _588  and  _591
REMARK  229  A    between atoms: _591  and  _592
REMARK  230  A    between atoms: _594  and  _596
REMARK  231  A    between atoms: _596  and  _597
REMARK  232  A    between atoms: _596  and  _599
REMARK  233  A    between atoms: _599  and  _600
REMARK  234  A    between atoms: _600  and  _601
REMARK  235  A    between atoms: _603  and  _605
REMARK  236  A    between atoms: _605  and  _606
REMARK  237  A    between atoms: _605  and  _608
REMARK  238  A    between atoms: _608  and  _609
REMARK  239  A    between atoms: _615  and  _617
REMARK  240  A    between atoms: _617  and  _618
REMARK  241  A    between atoms: _617  and  _620
REMARK  242  A    between atoms: _620  and  _621
REMARK  243  A    between atoms: _631  and  _633
REMARK  244  A    between atoms: _633  and  _634
REMARK  245  A    between atoms: _633  and  _636
REMARK  246  A    between atoms: _636  and  _637
REMARK  247  A    between atoms: _642  and  _644
REMARK  248  A    between atoms: _644  and  _645
REMARK  249  A    between atoms: _644  and  _647
REMARK  250  A    between atoms: _647  and  _648
REMARK  251  A    between atoms: _648  and  _649
REMARK                            x       y       z     vdW  Elec       q    Type
REMARK                         _______ _______ _______ _____ _____    ______ ____
ROOT
ATOM      1  C   SER A   1      10.911  45.693 108.750  0.00  0.00    +0.241 C 
ATOM      2  O   SER A   1      11.017  44.825 109.611  0.00  0.00    -0.274 OA
ATOM      3  N   PHE A   2      10.007  45.594 107.770  0.00  0.00    -0.298 N 
ATOM      4  H   PHE A   2       9.399  44.750 107.771  0.00  0.00    +0.150 HD
ENDROOT
BRANCH   1   5
ATOM      5  CA  SER A   1      11.861  46.901 108.785  0.00  0.00    +0.174 C 
BRANCH   5   6
ATOM      6  N   SER A   1      12.067  47.448 110.146  0.00  0.00    -0.236 NA
ATOM      7  H   SER A   1      12.374  46.805 110.904  0.00  0.00    +0.142 HD
ENDBRANCH   5   6
BRANCH   5   8
ATOM      8  CB  SER A   1      13.214  46.471 108.201  0.00  0.00    +0.163 C 
BRANCH   8   9
ATOM      9  OG  SER A   1      14.175  47.504 108.304  0.00  0.00    -0.380 OA
ATOM     10  H   SER A   1      14.305  47.739 109.257  0.00  0.00    +0.211 HD
ENDBRANCH   8   9
ENDBRANCH   5   8
ENDBRANCH   1   5
BRANCH   3  11
ATOM     11  CA  PHE A   2       9.797  46.565 106.698  0.00  0.00    +0.141 C 
BRANCH  11  12
ATOM     12  C   PHE A   2       8.295  46.895 106.588  0.00  0.00    +0.227 C 
ATOM     13  O   PHE A   2       7.442  46.074 106.942  0.00  0.00    -0.286 OA
ENDBRANCH  11  12
BRANCH  11  14
ATOM     14  CB  PHE A   2      10.177  45.982 105.327  0.00  0.00    +0.054 C 
BRANCH  14  15
ATOM     15  CG  PHE A   2      11.667  45.912 105.036  0.00  0.00    -0.020 A 
ATOM     16  CD2 PHE A   2      12.419  47.072 104.856  0.00  0.00    -0.004 A 
ATOM     17  CE2 PHE A   2      13.781  47.002 104.490  0.00  0.00    -0.000 A 
ATOM     18  CZ  PHE A   2      14.389  45.753 104.306  0.00  0.00    -0.000 A 
ATOM     19  CE1 PHE A   2      13.651  44.583 104.489  0.00  0.00    -0.000 A 
ATOM     20  CD1 PHE A   2      12.292  44.668 104.854  0.00  0.00    -0.004 A 
ENDBRANCH  14  15
ENDBRANCH  11  14
ENDBRANCH   3  11
TORSDOF 8
REMARK  Name = ../refined-set-2016/1ogg/1ogg_pocket.pdb
REMARK  251 active torsions:
REMARK  status: ('A' for Active; 'I' for Inactive)
REMARK    1  A    between atoms: _1  and  _3
REMARK    2  A    between atoms: _3  and  _4
REMARK    3  A    between atoms: _3  and  _6
REMARK    4  A    between atoms: _6  and  _7
REMARK    5  A    between atoms: _10  and  _12
REMARK    6  A    between atoms: _12  and  _13
REMARK    7  A    between atoms: _15  and  _17
REMARK    8  A    between atoms: _17  and  _18
REMARK    9  A    between atoms: _17  and  _20
REMARK   10  A    between atoms: _20  and  _21
REMARK   11  A    between atoms: _26  and  _27
REMARK   12  A    between atoms: _29  and  _31
REMARK   13  A    between atoms: _31  and  _32
REMARK   14  A    between atoms: _31  and  _34
REMARK   15  A    between atoms: _34  and  _35
REMARK   16  A    between atoms: _40  and  _41
REMARK   17  A    between atoms: _43  and  _45
REMARK   18  A    between atoms: _45  and  _46
REMARK   19  A    between atoms: _45  and  _48
REMARK   20  A    between atoms: _48  and  _49
REMARK   21  A    between atoms: _55  and  _57
REMARK   22  A    between atoms: _57  and  _58
REMARK   23  A    between atoms: _57  and  _60
REMARK   24  A    between atoms: _60  and  _61
REMARK   25  A    between atoms: _65  and  _66
REMARK   26  A    between atoms: _71  and  _73
REMARK   27  A    between atoms: _73  and  _74
REMARK   28  A    between atoms: _73  and  _76
REMARK   29  A    between atoms: _76  and  _77
REMARK   30  A    between atoms: _80  and  _82
REMARK   31  A    between atoms: _82  and  _83
REMARK   32  A    between atoms: _82  and  _85
REMARK   33  A    between atoms: _85  and  _86
REMARK   34  A    between atoms: _91  and  _93
REMARK   35  A    between atoms: _93  and  _94
REMARK   36  A    between atoms: _93  and  _96
REMARK   37  A    between atoms: _96  and  _97
REMARK   38  A    between atoms: _97  and  _98
REMARK   39  A    between atoms: _103  and  _105
REMARK   40  A    between atoms: _105  and  _106
REMARK   41  A    between atoms: _105  and  _108
REMARK   42  A    between atoms: _108  and  _109
REMARK   43  A    between atoms: _114  and  _116
REMARK   44  A    between atoms: _116  and  _117
REMARK   45  A    between atoms: _116  and  _119
REMARK   46  A    between atoms: _119  and  _120
REMARK   47  A    between atoms: _122  and  _124
REMARK   48  A    between atoms: _124  and  _125
REMARK   49  A    between atoms: _124  and  _127
REMARK   50  A    between atoms: _127  and  _128
REMARK   51  A    between atoms: _134  and  _136
REMARK   52  A    between atoms: _136  and  _137
REMARK   53  A    between atoms: _136  and  _139
REMARK   54  A    between atoms: _139  and  _140
REMARK   55  A    between atoms: _143  and  _145
REMARK   56  A    between atoms: _145  and  _146
REMARK   57  A    between atoms: _145  and  _148
REMARK   58  A    between atoms: _148  and  _149
REMARK   59  A    between atoms: _151  and  _153
REMARK   60  A    between atoms: _153  and  _154
REMARK   61  A    between atoms: _153  and  _156
REMARK   62  A    between atoms: _156  and  _157
REMARK   63  A    between atoms: _160  and  _162
REMARK   64  A    between atoms: _162  and  _163
REMARK   65  A    between atoms: _165  and  _167
REMARK   66  A    between atoms: _167  and  _168
REMARK   67  A    between atoms: _170  and  _172
REMARK   68  A    between atoms: _172  and  _173
REMARK   69  A    between atoms: _172  and  _175
REMARK   70  A    between atoms: _175  and  _176
REMARK   71  A    between atoms: _186  and  _188
REMARK   72  A    between atoms: _188  and  _189
REMARK   73  A    between atoms: _188  and  _191
REMARK   74  A    between atoms: _191  and  _192
REMARK   75  A    between atoms: _197  and  _198
REMARK   76  A    between atoms: _200  and  _202
REMARK   77  A    between atoms: _202  and  _203
REMARK   78  A    between atoms: _202  and  _205
REMARK   79  A    between atoms: _205  and  _206
REMARK   80  A    between atoms: _211  and  _212
REMARK   81  A    between atoms: _214  and  _216
REMARK   82  A    between atoms: _216  and  _217
REMARK   83  A    between atoms: _216  and  _219
REMARK   84  A    between atoms: _219  and  _220
REMARK   85  A    between atoms: _222  and  _224
REMARK   86  A    between atoms: _224  and  _225
REMARK   87  A    between atoms: _224  and  _227
REMARK   88  A    between atoms: _227  and  _228
REMARK   89  A    between atoms: _233  and  _235
REMARK   90  A    between atoms: _235  and  _236
REMARK   91  A    between atoms: _235  and  _238
REMARK   92  A    between atoms: _241  and  _243
REMARK   93  A    between atoms: _243  and  _244
REMARK   94  A    between atoms: _243  and  _246
REMARK   95  A    between atoms: _246  and  _247
REMARK   96  A    between atoms: _250  and  _252
REMARK   97  A    between atoms: _252  and  _253
REMARK   98  A    between atoms: _252  and  _255
REMARK   99  A    between atoms: _255  and  _256
REMARK  100  A    between atoms: _259  and  _261
REMARK  101  A    between atoms: _261  and  _262
REMARK  102  A    between atoms: _261  and  _264
REMARK  103  A    between atoms: _264  and  _265
REMARK  104  A    between atoms: _270  and  _272
REMARK  105  A    between atoms: _272  and  _273
REMARK  106  A    between atoms: _272  and  _275
REMARK  107  A    between atoms: _275  and  _276
REMARK  108  A    between atoms: _286  and  _288
REMARK  109  A    between atoms: _288  and  _289
REMARK  110  A    between atoms: _288  and  _291
REMARK  111  A    between atoms: _291  and  _292
REMARK  112  A    between atoms: _292  and  _293
REMARK  113  A    between atoms: _296  and  _298
REMARK  114  A    between atoms: _298  and  _299
REMARK  115  A    between atoms: _298  and  _301
REMARK  116  A    between atoms: _301  and  _302
REMARK  117  A    between atoms: _307  and  _308
REMARK  118  A    between atoms: _310  and  _312
REMARK  119  A    between atoms: _312  and  _313
REMARK  120  A    between atoms: _312  and  _315
REMARK  121  A    between atoms: _315  and  _316
REMARK  122  A    between atoms: _319  and  _321
REMARK  123  A    between atoms: _321  and  _322
REMARK  124  A    between atoms: _325  and  _327
REMARK  125  A    between atoms: _327  and  _328
REMARK  126  A    between atoms: _330  and  _332
REMARK  127  A    between atoms: _332  and  _333
REMARK  128  A    between atoms: _332  and  _335
REMARK  129  A    between atoms: _335  and  _336
REMARK  130  A    between atoms: _341  and  _343
REMARK  131  A    between atoms: _343  and  _344
REMARK  132  A    between atoms: _343  and  _346
REMARK  133  A    between atoms: _346  and  _347
REMARK  134  A    between atoms: _350  and  _352
REMARK  135  A    between atoms: _352  and  _353
REMARK  136  A    between atoms: _352  and  _355
REMARK  137  A    between atoms: _355  and  _356
REMARK  138  A    between atoms: _356  and  _357
REMARK  139  A    between atoms: _359  and  _361
REMARK  140  A    between atoms: _361  and  _362
REMARK  141  A    between atoms: _361  and  _364
REMARK  142  A    between atoms: _364  and  _365
REMARK  143  A    between atoms: _368  and  _370
REMARK  144  A    between atoms: _370  and  _371
REMARK  145  A    between atoms: _370  and  _373
REMARK  146  A    between atoms: _373  and  _374
REMARK  147  A    between atoms: _379  and  _380
REMARK  148  A    between atoms: _382  and  _384
REMARK  149  A    between atoms: _384  and  _385
REMARK  150  A    between atoms: _384  and  _387
REMARK  151  A    between atoms: _387  and  _388
REMARK  152  A    between atoms: _391  and  _393
REMARK  153  A    between atoms: _393  and  _394
REMARK  154  A    between atoms: _393  and  _396
REMARK  155  A    between atoms: _396  and  _397
REMARK  156  A    between atoms: _407  and  _409
REMARK  157  A    between atoms: _409  and  _410
REMARK  158  A    between atoms: _409  and  _412
REMARK  159  A    between atoms: _412  and  _413
REMARK  160  A    between atoms: _413  and  _414
REMARK  161  A    between atoms: _419  and  _421
REMARK  162  A    between atoms: _421  and  _422
REMARK  163  A    between atoms: _424  and  _426
REMARK  164  A    between atoms: _426  and  _427
REMARK  165  A    between atoms: _426  and  _429
REMARK  166  A    between atoms: _433  and  _434
REMARK  167  A    between atoms: _439  and  _441
REMARK  168  A    between atoms: _441  and  _442
REMARK  169  A    between atoms: _441  and  _444
REMARK  170  A    between atoms: _444  and  _445
REMARK  171  A    between atoms: _451  and  _453
REMARK  172  A    between atoms: _453  and  _454
REMARK  173  A    between atoms: _453  and  _456
REMARK  174  A    between atoms: _456  and  _457
REMARK  175  A    between atoms: _462  and  _463
REMARK  176  A    between atoms: _465  and  _467
REMARK  177  A    between atoms: _467  and  _468
REMARK  178  A    between atoms: _470  and  _472
REMARK  179  A    between atoms: _472  and  _473
REMARK  180  A    between atoms: _472  and  _475
REMARK  181  A    between atoms: _475  and  _476
REMARK  182  A    between atoms: _476  and  _477
REMARK  183  A    between atoms: _477  and  _478
REMARK  184  A    between atoms: _487  and  _489
REMARK  185  A    between atoms: _489  and  _490
REMARK  186  A    between atoms: _489  and  _492
REMARK  187  A    between atoms: _492  and  _493
REMARK  188  A    between atoms: _496  and  _498
REMARK  189  A    between atoms: _498  and  _499
REMARK  190  A    between atoms: _498  and  _501
REMARK  191  A    between atoms: _501  and  _502
REMARK  192  A    between atoms: _502  and  _503
REMARK  193  A    between atoms: _506  and  _508
REMARK  194  A    between atoms: _508  and  _509
REMARK  195  A    between atoms: _508  and  _511
REMARK  196  A    between atoms: _511  and  _512
REMARK  197  A    between atoms: _512  and  _513
REMARK  198  A    between atoms: _513  and  _514
REMARK  199  A    between atoms: _523  and  _525
REMARK  200  A    between atoms: _525  and  _526
REMARK  201  A    between atoms: _525  and  _528
REMARK  202  A    between atoms: _528  and  _529
REMARK  203  A    between atoms: _532  and  _534
REMARK  204  A    between atoms: _534  and  _535
REMARK  205  A    between atoms: _534  and  _537
REMARK  206  A    between atoms: _537  and  _538
REMARK  207  A    between atoms: _538  and  _539
REMARK  208  A    between atoms: _539  and  _540
REMARK  209  A    between atoms: _540  and  _541
REMARK  210  A    between atoms: _545  and  _547
REMARK  211  A    between atoms: _547  and  _548
REMARK  212  A    between atoms: _547  and  _550
REMARK  213  A    between atoms: _550  and  _551
REMARK  214  A    between atoms: _554  and  _556
REMARK  215  A    between atoms: _556  and  _557
REMARK  216  A    between atoms: _556  and  _559
REMARK  217  A    between atoms: _559  and  _560
REMARK  218  A    between atoms: _560  and  _561
REMARK  219  A    between atoms: _561  and  _562
REMARK  220  A    between atoms: _571  and  _573
REMARK  221  A    between atoms: _573  and  _574
REMARK  222  A    between atoms: _573  and  _576
REMARK  223  A    between atoms: _576  and  _577
REMARK  224  A    between atoms: _580  and  _582
REMARK  225  A    between atoms: _582  and  _583
REMARK  226  A    between atoms: _586  and  _588
REMARK  227  A    between atoms: _588  and  _589
REMARK  228  A    between atoms: _588  and  _591
REMARK  229  A    between atoms: _591  and  _592
REMARK  230  A    between atoms: _594  and  _596
REMARK  231  A    between atoms: _596  and  _597
REMARK  232  A    between atoms: _596  and  _599
REMARK  233  A    between atoms: _599  and  _600
REMARK  234  A    between atoms: _600  and  _601
REMARK  235  A    between atoms: _603  and  _605
REMARK  236  A    between atoms: _605  and  _606
REMARK  237  A    between atoms: _605  and  _608
REMARK  238  A    between atoms: _608  and  _609
REMARK  239  A    between atoms: _615  and  _617
REMARK  240  A    between atoms: _617  and  _618
REMARK  241  A    between atoms: _617  and  _620
REMARK  242  A    between atoms: _620  and  _621
REMARK  243  A    between atoms: _631  and  _633
REMARK  244  A    between atoms: _633  and  _634
REMARK  245  A    between atoms: _633  and  _636
REMARK  246  A    between atoms: _636  and  _637
REMARK  247  A    between atoms: _642  and  _644
REMARK  248  A    between atoms: _644  and  _645
REMARK  249  A    between atoms: _644  and  _647
REMARK  250  A    between atoms: _647  and  _648
REMARK  251  A    between atoms: _648  and  _649
REMARK                            x       y       z     vdW  Elec       q    Type
REMARK                         _______ _______ _______ _____ _____    ______ ____
ROOT
ATOM      1  CA  ASP A   1       1.848  44.043 105.381  0.00  0.00    +0.144 C 
ENDROOT
BRANCH   1   2
ATOM      2  N   ASP A   1       2.296  45.184 106.161  0.00  0.00    -0.239 NA
ATOM      3  H   ASP A   1       3.171  45.128 106.720  0.00  0.00    +0.142 HD
ENDBRANCH   1   2
BRANCH   1   4
ATOM      4  C   ASP A   1       0.437  43.721 105.895  0.00  0.00    +0.225 C 
ATOM      5  O   ASP A   1       0.198  43.724 107.101  0.00  0.00    -0.287 OA
ENDBRANCH   1   4
BRANCH   1   6
ATOM      6  CB  ASP A   1       2.764  42.830 105.588  0.00  0.00    +0.139 C 
BRANCH   6   7
ATOM      7  CG  ASP A   1       2.080  41.496 105.217  0.00  0.00    +0.367 C 
ATOM      8  OD2 ASP A   1       2.517  40.428 105.699  0.00  0.00    -0.246 OA
ATOM      9  OD1 ASP A   1       1.103  41.509 104.436  0.00  0.00    -0.246 OA
ENDBRANCH   6   7
ENDBRANCH   1   6
TORSDOF 4
REMARK  Name = ../refined-set-2016/1ogg/1ogg_pocket.pdb
REMARK  251 active torsions:
REMARK  status: ('A' for Active; 'I' for Inactive)
REMARK    1  A    between atoms: _1  and  _3
REMARK    2  A    between atoms: _3  and  _4
REMARK    3  A    between atoms: _3  and  _6
REMARK    4  A    between atoms: _6  and  _7
REMARK    5  A    between atoms: _10  and  _12
REMARK    6  A    between atoms: _12  and  _13
REMARK    7  A    between atoms: _15  and  _17
REMARK    8  A    between atoms: _17  and  _18
REMARK    9  A    between atoms: _17  and  _20
REMARK   10  A    between atoms: _20  and  _21
REMARK   11  A    between atoms: _26  and  _27
REMARK   12  A    between atoms: _29  and  _31
REMARK   13  A    between atoms: _31  and  _32
REMARK   14  A    between atoms: _31  and  _34
REMARK   15  A    between atoms: _34  and  _35
REMARK   16  A    between atoms: _40  and  _41
REMARK   17  A    between atoms: _43  and  _45
REMARK   18  A    between atoms: _45  and  _46
REMARK   19  A    between atoms: _45  and  _48
REMARK   20  A    between atoms: _48  and  _49
REMARK   21  A    between atoms: _55  and  _57
REMARK   22  A    between atoms: _57  and  _58
REMARK   23  A    between atoms: _57  and  _60
REMARK   24  A    between atoms: _60  and  _61
REMARK   25  A    between atoms: _65  and  _66
REMARK   26  A    between atoms: _71  and  _73
REMARK   27  A    between atoms: _73  and  _74
REMARK   28  A    between atoms: _73  and  _76
REMARK   29  A    between atoms: _76  and  _77
REMARK   30  A    between atoms: _80  and  _82
REMARK   31  A    between atoms: _82  and  _83
REMARK   32  A    between atoms: _82  and  _85
REMARK   33  A    between atoms: _85  and  _86
REMARK   34  A    between atoms: _91  and  _93
REMARK   35  A    between atoms: _93  and  _94
REMARK   36  A    between atoms: _93  and  _96
REMARK   37  A    between atoms: _96  and  _97
REMARK   38  A    between atoms: _97  and  _98
REMARK   39  A    between atoms: _103  and  _105
REMARK   40  A    between atoms: _105  and  _106
REMARK   41  A    between atoms: _105  and  _108
REMARK   42  A    between atoms: _108  and  _109
REMARK   43  A    between atoms: _114  and  _116
REMARK   44  A    between atoms: _116  and  _117
REMARK   45  A    between atoms: _116  and  _119
REMARK   46  A    between atoms: _119  and  _120
REMARK   47  A    between atoms: _122  and  _124
REMARK   48  A    between atoms: _124  and  _125
REMARK   49  A    between atoms: _124  and  _127
REMARK   50  A    between atoms: _127  and  _128
REMARK   51  A    between atoms: _134  and  _136
REMARK   52  A    between atoms: _136  and  _137
REMARK   53  A    between atoms: _136  and  _139
REMARK   54  A    between atoms: _139  and  _140
REMARK   55  A    between atoms: _143  and  _145
REMARK   56  A    between atoms: _145  and  _146
REMARK   57  A    between atoms: _145  and  _148
REMARK   58  A    between atoms: _148  and  _149
REMARK   59  A    between atoms: _151  and  _153
REMARK   60  A    between atoms: _153  and  _154
REMARK   61  A    between atoms: _153  and  _156
REMARK   62  A    between atoms: _156  and  _157
REMARK   63  A    between atoms: _160  and  _162
REMARK   64  A    between atoms: _162  and  _163
REMARK   65  A    between atoms: _165  and  _167
REMARK   66  A    between atoms: _167  and  _168
REMARK   67  A    between atoms: _170  and  _172
REMARK   68  A    between atoms: _172  and  _173
REMARK   69  A    between atoms: _172  and  _175
REMARK   70  A    between atoms: _175  and  _176
REMARK   71  A    between atoms: _186  and  _188
REMARK   72  A    between atoms: _188  and  _189
REMARK   73  A    between atoms: _188  and  _191
REMARK   74  A    between atoms: _191  and  _192
REMARK   75  A    between atoms: _197  and  _198
REMARK   76  A    between atoms: _200  and  _202
REMARK   77  A    between atoms: _202  and  _203
REMARK   78  A    between atoms: _202  and  _205
REMARK   79  A    between atoms: _205  and  _206
REMARK   80  A    between atoms: _211  and  _212
REMARK   81  A    between atoms: _214  and  _216
REMARK   82  A    between atoms: _216  and  _217
REMARK   83  A    between atoms: _216  and  _219
REMARK   84  A    between atoms: _219  and  _220
REMARK   85  A    between atoms: _222  and  _224
REMARK   86  A    between atoms: _224  and  _225
REMARK   87  A    between atoms: _224  and  _227
REMARK   88  A    between atoms: _227  and  _228
REMARK   89  A    between atoms: _233  and  _235
REMARK   90  A    between atoms: _235  and  _236
REMARK   91  A    between atoms: _235  and  _238
REMARK   92  A    between atoms: _241  and  _243
REMARK   93  A    between atoms: _243  and  _244
REMARK   94  A    between atoms: _243  and  _246
REMARK   95  A    between atoms: _246  and  _247
REMARK   96  A    between atoms: _250  and  _252
REMARK   97  A    between atoms: _252  and  _253
REMARK   98  A    between atoms: _252  and  _255
REMARK   99  A    between atoms: _255  and  _256
REMARK  100  A    between atoms: _259  and  _261
REMARK  101  A    between atoms: _261  and  _262
REMARK  102  A    between atoms: _261  and  _264
REMARK  103  A    between atoms: _264  and  _265
REMARK  104  A    between atoms: _270  and  _272
REMARK  105  A    between atoms: _272  and  _273
REMARK  106  A    between atoms: _272  and  _275
REMARK  107  A    between atoms: _275  and  _276
REMARK  108  A    between atoms: _286  and  _288
REMARK  109  A    between atoms: _288  and  _289
REMARK  110  A    between atoms: _288  and  _291
REMARK  111  A    between atoms: _291  and  _292
REMARK  112  A    between atoms: _292  and  _293
REMARK  113  A    between atoms: _296  and  _298
REMARK  114  A    between atoms: _298  and  _299
REMARK  115  A    between atoms: _298  and  _301
REMARK  116  A    between atoms: _301  and  _302
REMARK  117  A    between atoms: _307  and  _308
REMARK  118  A    between atoms: _310  and  _312
REMARK  119  A    between atoms: _312  and  _313
REMARK  120  A    between atoms: _312  and  _315
REMARK  121  A    between atoms: _315  and  _316
REMARK  122  A    between atoms: _319  and  _321
REMARK  123  A    between atoms: _321  and  _322
REMARK  124  A    between atoms: _325  and  _327
REMARK  125  A    between atoms: _327  and  _328
REMARK  126  A    between atoms: _330  and  _332
REMARK  127  A    between atoms: _332  and  _333
REMARK  128  A    between atoms: _332  and  _335
REMARK  129  A    between atoms: _335  and  _336
REMARK  130  A    between atoms: _341  and  _343
REMARK  131  A    between atoms: _343  and  _344
REMARK  132  A    between atoms: _343  and  _346
REMARK  133  A    between atoms: _346  and  _347
REMARK  134  A    between atoms: _350  and  _352
REMARK  135  A    between atoms: _352  and  _353
REMARK  136  A    between atoms: _352  and  _355
REMARK  137  A    between atoms: _355  and  _356
REMARK  138  A    between atoms: _356  and  _357
REMARK  139  A    between atoms: _359  and  _361
REMARK  140  A    between atoms: _361  and  _362
REMARK  141  A    between atoms: _361  and  _364
REMARK  142  A    between atoms: _364  and  _365
REMARK  143  A    between atoms: _368  and  _370
REMARK  144  A    between atoms: _370  and  _371
REMARK  145  A    between atoms: _370  and  _373
REMARK  146  A    between atoms: _373  and  _374
REMARK  147  A    between atoms: _379  and  _380
REMARK  148  A    between atoms: _382  and  _384
REMARK  149  A    between atoms: _384  and  _385
REMARK  150  A    between atoms: _384  and  _387
REMARK  151  A    between atoms: _387  and  _388
REMARK  152  A    between atoms: _391  and  _393
REMARK  153  A    between atoms: _393  and  _394
REMARK  154  A    between atoms: _393  and  _396
REMARK  155  A    between atoms: _396  and  _397
REMARK  156  A    between atoms: _407  and  _409
REMARK  157  A    between atoms: _409  and  _410
REMARK  158  A    between atoms: _409  and  _412
REMARK  159  A    between atoms: _412  and  _413
REMARK  160  A    between atoms: _413  and  _414
REMARK  161  A    between atoms: _419  and  _421
REMARK  162  A    between atoms: _421  and  _422
REMARK  163  A    between atoms: _424  and  _426
REMARK  164  A    between atoms: _426  and  _427
REMARK  165  A    between atoms: _426  and  _429
REMARK  166  A    between atoms: _433  and  _434
REMARK  167  A    between atoms: _439  and  _441
REMARK  168  A    between atoms: _441  and  _442
REMARK  169  A    between atoms: _441  and  _444
REMARK  170  A    between atoms: _444  and  _445
REMARK  171  A    between atoms: _451  and  _453
REMARK  172  A    between atoms: _453  and  _454
REMARK  173  A    between atoms: _453  and  _456
REMARK  174  A    between atoms: _456  and  _457
REMARK  175  A    between atoms: _462  and  _463
REMARK  176  A    between atoms: _465  and  _467
REMARK  177  A    between atoms: _467  and  _468
REMARK  178  A    between atoms: _470  and  _472
REMARK  179  A    between atoms: _472  and  _473
REMARK  180  A    between atoms: _472  and  _475
REMARK  181  A    between atoms: _475  and  _476
REMARK  182  A    between atoms: _476  and  _477
REMARK  183  A    between atoms: _477  and  _478
REMARK  184  A    between atoms: _487  and  _489
REMARK  185  A    between atoms: _489  and  _490
REMARK  186  A    between atoms: _489  and  _492
REMARK  187  A    between atoms: _492  and  _493
REMARK  188  A    between atoms: _496  and  _498
REMARK  189  A    between atoms: _498  and  _499
REMARK  190  A    between atoms: _498  and  _501
REMARK  191  A    between atoms: _501  and  _502
REMARK  192  A    between atoms: _502  and  _503
REMARK  193  A    between atoms: _506  and  _508
REMARK  194  A    between atoms: _508  and  _509
REMARK  195  A    between atoms: _508  and  _511
REMARK  196  A    between atoms: _511  and  _512
REMARK  197  A    between atoms: _512  and  _513
REMARK  198  A    between atoms: _513  and  _514
REMARK  199  A    between atoms: _523  and  _525
REMARK  200  A    between atoms: _525  and  _526
REMARK  201  A    between atoms: _525  and  _528
REMARK  202  A    between atoms: _528  and  _529
REMARK  203  A    between atoms: _532  and  _534
REMARK  204  A    between atoms: _534  and  _535
REMARK  205  A    between atoms: _534  and  _537
REMARK  206  A    between atoms: _537  and  _538
REMARK  207  A    between atoms: _538  and  _539
REMARK  208  A    between atoms: _539  and  _540
REMARK  209  A    between atoms: _540  and  _541
REMARK  210  A    between atoms: _545  and  _547
REMARK  211  A    between atoms: _547  and  _548
REMARK  212  A    between atoms: _547  and  _550
REMARK  213  A    between atoms: _550  and  _551
REMARK  214  A    between atoms: _554  and  _556
REMARK  215  A    between atoms: _556  and  _557
REMARK  216  A    between atoms: _556  and  _559
REMARK  217  A    between atoms: _559  and  _560
REMARK  218  A    between atoms: _560  and  _561
REMARK  219  A    between atoms: _561  and  _562
REMARK  220  A    between atoms: _571  and  _573
REMARK  221  A    between atoms: _573  and  _574
REMARK  222  A    between atoms: _573  and  _576
REMARK  223  A    between atoms: _576  and  _577
REMARK  224  A    between atoms: _580  and  _582
REMARK  225  A    between atoms: _582  and  _583
REMARK  226  A    between atoms: _586  and  _588
REMARK  227  A    between atoms: _588  and  _589
REMARK  228  A    between atoms: _588  and  _591
REMARK  229  A    between atoms: _591  and  _592
REMARK  230  A    between atoms: _594  and  _596
REMARK  231  A    between atoms: _596  and  _597
REMARK  232  A    between atoms: _596  and  _599
REMARK  233  A    between atoms: _599  and  _600
REMARK  234  A    between atoms: _600  and  _601
REMARK  235  A    between atoms: _603  and  _605
REMARK  236  A    between atoms: _605  and  _606
REMARK  237  A    between atoms: _605  and  _608
REMARK  238  A    between atoms: _608  and  _609
REMARK  239  A    between atoms: _615  and  _617
REMARK  240  A    between atoms: _617  and  _618
REMARK  241  A    between atoms: _617  and  _620
REMARK  242  A    between atoms: _620  and  _621
REMARK  243  A    between atoms: _631  and  _633
REMARK  244  A    between atoms: _633  and  _634
REMARK  245  A    between atoms: _633  and  _636
REMARK  246  A    between atoms: _636  and  _637
REMARK  247  A    between atoms: _642  and  _644
REMARK  248  A    between atoms: _644  and  _645
REMARK  249  A    between atoms: _644  and  _647
REMARK  250  A    between atoms: _647  and  _648
REMARK  251  A    between atoms: _648  and  _649
REMARK                            x       y       z     vdW  Elec       q    Type
REMARK                         _______ _______ _______ _____ _____    ______ ____
ROOT
ATOM      1  C   TRP A   5      12.995  42.469  98.122  0.00  0.00    +0.241 C 
ATOM      2  N   TYR A   6      12.421  41.714  99.052  0.00  0.00    -0.297 N 
ATOM      3  H   TYR A   6      12.844  41.657 100.000  0.00  0.00    +0.150 HD
ATOM      4  O   TRP A   5      12.527  42.603  97.003  0.00  0.00    -0.273 OA
ENDROOT
BRANCH   2   5
ATOM      5  CA  TYR A   6      11.198  40.959  98.758  0.00  0.00    +0.153 C 
BRANCH   5   6
ATOM      6  C   TYR A   6      10.041  41.800  98.201  0.00  0.00    +0.241 C 
ATOM      7  N   TYR A   7       9.745  42.925  98.844  0.00  0.00    -0.297 N 
ATOM      8  H   TYR A   7      10.303  43.212  99.673  0.00  0.00    +0.150 HD
ATOM      9  O   TYR A   6       9.423  41.432  97.194  0.00  0.00    -0.273 OA
BRANCH   7  10
ATOM     10  CA  TYR A   7       8.636  43.758  98.386  0.00  0.00    +0.153 C 
BRANCH  10  11
ATOM     11  C   TYR A   7       8.886  44.576  97.132  0.00  0.00    +0.241 C 
ATOM     12  N   SER A   8      10.056  45.205  97.059  0.00  0.00    -0.295 N 
ATOM     13  H   SER A   8      10.764  45.034  97.801  0.00  0.00    +0.150 HD
ATOM     14  O   TYR A   7       8.027  44.628  96.235  0.00  0.00    -0.273 OA
BRANCH  12  15
ATOM     15  CA  SER A   8      10.383  46.131  95.969  0.00  0.00    +0.178 C 
BRANCH  15  16
ATOM     16  C   SER A   8      11.278  45.754  94.797  0.00  0.00    +0.243 C 
ATOM     17  N   ASN A   9      11.875  44.570  94.796  0.00  0.00    -0.298 N 
ATOM     18  H   ASN A   9      11.735  43.899  95.579  0.00  0.00    +0.150 HD
ATOM     19  O   SER A   8      11.447  46.564  93.881  0.00  0.00    -0.273 OA
BRANCH  17  20
ATOM     20  CA  ASN A   9      12.737  44.234  93.661  0.00  0.00    +0.146 C 
BRANCH  20  21
ATOM     21  C   ASN A   9      11.899  44.148  92.382  0.00  0.00    +0.227 C 
ATOM     22  O   ASN A   9      10.681  43.945  92.444  0.00  0.00    -0.286 OA
ENDBRANCH  20  21
BRANCH  20  23
ATOM     23  CB  ASN A   9      13.495  42.936  93.928  0.00  0.00    +0.112 C 
BRANCH  23  24
ATOM     24  CG  ASN A   9      12.733  41.715  93.486  0.00  0.00    +0.222 C 
ATOM     25  ND2 ASN A   9      12.106  41.037  94.433  0.00  0.00    -0.329 N 
ATOM     26 HD21 ASN A   9      12.155  41.358  95.421  0.00  0.00    +0.145 HD
ATOM     27 HD22 ASN A   9      11.564  40.183  94.189  0.00  0.00    +0.145 HD
ATOM     28  OD1 ASN A   9      12.711  41.383  92.298  0.00  0.00    -0.275 OA
ENDBRANCH  23  24
ENDBRANCH  20  23
ENDBRANCH  17  20
ENDBRANCH  15  16
BRANCH  15  29
ATOM     29  CB  SER A   8      10.963  47.410  96.572  0.00  0.00    +0.166 C 
BRANCH  29  30
ATOM     30  OG  SER A   8      12.195  47.123  97.217  0.00  0.00    -0.380 OA
ATOM     31  H   SER A   8      12.043  46.461  97.937  0.00  0.00    +0.211 HD
ENDBRANCH  29  30
ENDBRANCH  15  29
ENDBRANCH  12  15
ENDBRANCH  10  11
BRANCH  10  32
ATOM     32  CB  TYR A   7       8.187  44.752  99.465  0.00  0.00    +0.055 C 
BRANCH  32  33
ATOM     33  CG  TYR A   7       7.620  44.193 100.750  0.00  0.00    -0.020 A 
ATOM     34  CD2 TYR A   7       7.840  44.850 101.963  0.00  0.00    -0.001 A 
ATOM     35  CE2 TYR A   7       7.285  44.387 103.154  0.00  0.00    +0.036 A 
ATOM     36  CZ  TYR A   7       6.495  43.249 103.154  0.00  0.00    +0.134 A 
ATOM     37  CE1 TYR A   7       6.252  42.577 101.963  0.00  0.00    +0.036 A 
ATOM     38  CD1 TYR A   7       6.817  43.051 100.761  0.00  0.00    -0.001 A 
BRANCH  36  39
ATOM     39  OH  TYR A   7       5.983  42.774 104.353  0.00  0.00    -0.506 OA
ATOM     40  HH  TYR A   7       6.729  42.554 104.965  0.00  0.00    +0.292 HD
ENDBRANCH  36  39
ENDBRANCH  32  33
ENDBRANCH  10  32
ENDBRANCH   7  10
ENDBRANCH   5   6
BRANCH   5  41
ATOM     41  CB  TYR A   6      10.705  40.213  99.998  0.00  0.00    +0.055 C 
BRANCH  41  42
ATOM     42  CG  TYR A   6       9.432  39.413  99.752  0.00  0.00    -0.020 A 
ATOM     43  CD2 TYR A   6       8.228  39.763 100.372  0.00  0.00    -0.001 A 
ATOM     44  CE2 TYR A   6       7.038  39.043 100.120  0.00  0.00    +0.036 A 
ATOM     45  CZ  TYR A   6       7.051  37.966  99.244  0.00  0.00    +0.134 A 
ATOM     46  CE1 TYR A   6       8.232  37.596  98.617  0.00  0.00    +0.036 A 
ATOM     47  CD1 TYR A   6       9.421  38.322  98.874  0.00  0.00    -0.001 A 
BRANCH  45  48
ATOM     48  OH  TYR A   6       5.893  37.266  98.997  0.00  0.00    -0.506 OA
ATOM     49  HH  TYR A   6       6.080  36.537  98.354  0.00  0.00    +0.292 HD
ENDBRANCH  45  48
ENDBRANCH  41  42
ENDBRANCH   5  41
ENDBRANCH   2   5
BRANCH   1  50
ATOM     50  CA  TRP A   5      14.285  43.203  98.492  0.00  0.00    +0.153 C 
BRANCH  50  52
ATOM     51  C   GLY A   4      13.282  44.914  99.843  0.00  0.00    +0.243 C 
ATOM     52  N   TRP A   5      14.190  43.956  99.728  0.00  0.00    -0.297 N 
ATOM     53  H   TRP A   5      14.831  43.745 100.519  0.00  0.00    +0.150 HD
ATOM     54  O   GLY A   4      12.479  45.166  98.944  0.00  0.00    -0.273 OA
BRANCH  51  55
ATOM     55  CA  GLY A   4      13.262  45.693 101.147  0.00  0.00    +0.176 C 
BRANCH  55  58
ATOM     56  C   GLY A   3      11.249  47.010 101.266  0.00  0.00    +0.243 C 
ATOM     57  O   GLY A   3      10.632  46.109 101.840  0.00  0.00    -0.273 OA
ATOM     58  N   GLY A   4      12.527  46.920 100.917  0.00  0.00    -0.295 N 
ATOM     59  H   GLY A   4      13.002  47.734 100.477  0.00  0.00    +0.150 HD
BRANCH  56  60
ATOM     60  CA  GLY A   3      10.572  48.315 100.936  0.00  0.00    +0.176 C 
BRANCH  60  62
ATOM     61  C   ILE A   2      10.280  50.261 102.264  0.00  0.00    +0.241 C 
ATOM     62  N   GLY A   3       9.955  48.995 102.056  0.00  0.00    -0.295 N 
ATOM     63  H   GLY A   3       9.279  48.505 102.676  0.00  0.00    +0.150 HD
ATOM     64  O   ILE A   2      11.115  50.838 101.568  0.00  0.00    -0.273 OA
BRANCH  61  65
ATOM     65  CA  ILE A   2       9.581  50.996 103.418  0.00  0.00    +0.148 C 
BRANCH  65  68
ATOM     66  C   SER A   1      10.773  50.895 105.545  0.00  0.00    +0.241 C 
ATOM     67  O   SER A   1      10.144  49.921 105.914  0.00  0.00    -0.274 OA
ATOM     68  N   ILE A   2      10.580  51.475 104.373  0.00  0.00    -0.297 N 
ATOM     69  H   ILE A   2      11.159  52.301 104.121  0.00  0.00    +0.150 HD
BRANCH  66  70
ATOM     70  CA  SER A   1      11.856  51.510 106.438  0.00  0.00    +0.174 C 
BRANCH  70  71
ATOM     71  N   SER A   1      11.381  51.631 107.790  0.00  0.00    -0.236 NA
ATOM     72  H   SER A   1      11.198  50.766 108.338  0.00  0.00    +0.142 HD
ENDBRANCH  70  71
BRANCH  70  73
ATOM     73  CB  SER A   1      13.098  50.632 106.409  0.00  0.00    +0.163 C 
BRANCH  73  74
ATOM     74  OG  SER A   1      13.670  50.618 105.104  0.00  0.00    -0.380 OA
ATOM     75  H   SER A   1      13.921  51.540 104.845  0.00  0.00    +0.211 HD
ENDBRANCH  73  74
ENDBRANCH  70  73
ENDBRANCH  66  70
ENDBRANCH  65  68
BRANCH  65  76
ATOM     76  CB  ILE A   2       8.805  52.185 102.793  0.00  0.00    +0.027 C 
ATOM     77  CG2 ILE A   2       7.724  51.651 101.808  0.00  0.00    +0.002 C 
BRANCH  76  78
ATOM     78  CG1 ILE A   2       8.174  53.043 103.892  0.00  0.00    +0.002 C 
ATOM     79  CD1 ILE A   2       7.660  54.351 103.373  0.00  0.00    +0.000 C 
ENDBRANCH  76  78
ENDBRANCH  65  76
ENDBRANCH  61  65
ENDBRANCH  60  62
ENDBRANCH  56  60
ENDBRANCH  55  58
ENDBRANCH  51  55
ENDBRANCH  50  52
BRANCH  50  80
ATOM     80  CB  TRP A   5      15.453  42.209  98.546  0.00  0.00    +0.057 C 
BRANCH  80  81
ATOM     81  CG  TRP A   5      15.523  41.362  97.316  0.00  0.00    -0.002 A 
ATOM     82  CD1 TRP A   5      14.972  40.122  97.146  0.00  0.00    +0.068 A 
ATOM     83  NE1 TRP A   5      15.151  39.697  95.852  0.00  0.00    -0.352 N 
ATOM     84  HE1 TRP A   5      14.825  38.788  95.465  0.00  0.00    +0.166 HD
ATOM     85  CE2 TRP A   5      15.828  40.662  95.153  0.00  0.00    +0.056 A 
ATOM     86  CZ2 TRP A   5      16.239  40.687  93.810  0.00  0.00    +0.017 A 
ATOM     87  CH2 TRP A   5      16.913  41.796  93.370  0.00  0.00    +0.001 A 
ATOM     88  CZ3 TRP A   5      17.186  42.880  94.238  0.00  0.00    +0.000 A 
ATOM     89  CE3 TRP A   5      16.774  42.856  95.575  0.00  0.00    +0.001 A 
ATOM     90  CD2 TRP A   5      16.083  41.728  96.047  0.00  0.00    +0.013 A 
ENDBRANCH  80  81
ENDBRANCH  50  80
ENDBRANCH   1  50
TORSDOF 34
REMARK  Name = ../refined-set-2016/1ogg/1ogg_pocket.pdb
REMARK  251 active torsions:
REMARK  status: ('A' for Active; 'I' for Inactive)
REMARK    1  A    between atoms: _1  and  _3
REMARK    2  A    between atoms: _3  and  _4
REMARK    3  A    between atoms: _3  and  _6
REMARK    4  A    between atoms: _6  and  _7
REMARK    5  A    between atoms: _10  and  _12
REMARK    6  A    between atoms: _12  and  _13
REMARK    7  A    between atoms: _15  and  _17
REMARK    8  A    between atoms: _17  and  _18
REMARK    9  A    between atoms: _17  and  _20
REMARK   10  A    between atoms: _20  and  _21
REMARK   11  A    between atoms: _26  and  _27
REMARK   12  A    between atoms: _29  and  _31
REMARK   13  A    between atoms: _31  and  _32
REMARK   14  A    between atoms: _31  and  _34
REMARK   15  A    between atoms: _34  and  _35
REMARK   16  A    between atoms: _40  and  _41
REMARK   17  A    between atoms: _43  and  _45
REMARK   18  A    between atoms: _45  and  _46
REMARK   19  A    between atoms: _45  and  _48
REMARK   20  A    between atoms: _48  and  _49
REMARK   21  A    between atoms: _55  and  _57
REMARK   22  A    between atoms: _57  and  _58
REMARK   23  A    between atoms: _57  and  _60
REMARK   24  A    between atoms: _60  and  _61
REMARK   25  A    between atoms: _65  and  _66
REMARK   26  A    between atoms: _71  and  _73
REMARK   27  A    between atoms: _73  and  _74
REMARK   28  A    between atoms: _73  and  _76
REMARK   29  A    between atoms: _76  and  _77
REMARK   30  A    between atoms: _80  and  _82
REMARK   31  A    between atoms: _82  and  _83
REMARK   32  A    between atoms: _82  and  _85
REMARK   33  A    between atoms: _85  and  _86
REMARK   34  A    between atoms: _91  and  _93
REMARK   35  A    between atoms: _93  and  _94
REMARK   36  A    between atoms: _93  and  _96
REMARK   37  A    between atoms: _96  and  _97
REMARK   38  A    between atoms: _97  and  _98
REMARK   39  A    between atoms: _103  and  _105
REMARK   40  A    between atoms: _105  and  _106
REMARK   41  A    between atoms: _105  and  _108
REMARK   42  A    between atoms: _108  and  _109
REMARK   43  A    between atoms: _114  and  _116
REMARK   44  A    between atoms: _116  and  _117
REMARK   45  A    between atoms: _116  and  _119
REMARK   46  A    between atoms: _119  and  _120
REMARK   47  A    between atoms: _122  and  _124
REMARK   48  A    between atoms: _124  and  _125
REMARK   49  A    between atoms: _124  and  _127
REMARK   50  A    between atoms: _127  and  _128
REMARK   51  A    between atoms: _134  and  _136
REMARK   52  A    between atoms: _136  and  _137
REMARK   53  A    between atoms: _136  and  _139
REMARK   54  A    between atoms: _139  and  _140
REMARK   55  A    between atoms: _143  and  _145
REMARK   56  A    between atoms: _145  and  _146
REMARK   57  A    between atoms: _145  and  _148
REMARK   58  A    between atoms: _148  and  _149
REMARK   59  A    between atoms: _151  and  _153
REMARK   60  A    between atoms: _153  and  _154
REMARK   61  A    between atoms: _153  and  _156
REMARK   62  A    between atoms: _156  and  _157
REMARK   63  A    between atoms: _160  and  _162
REMARK   64  A    between atoms: _162  and  _163
REMARK   65  A    between atoms: _165  and  _167
REMARK   66  A    between atoms: _167  and  _168
REMARK   67  A    between atoms: _170  and  _172
REMARK   68  A    between atoms: _172  and  _173
REMARK   69  A    between atoms: _172  and  _175
REMARK   70  A    between atoms: _175  and  _176
REMARK   71  A    between atoms: _186  and  _188
REMARK   72  A    between atoms: _188  and  _189
REMARK   73  A    between atoms: _188  and  _191
REMARK   74  A    between atoms: _191  and  _192
REMARK   75  A    between atoms: _197  and  _198
REMARK   76  A    between atoms: _200  and  _202
REMARK   77  A    between atoms: _202  and  _203
REMARK   78  A    between atoms: _202  and  _205
REMARK   79  A    between atoms: _205  and  _206
REMARK   80  A    between atoms: _211  and  _212
REMARK   81  A    between atoms: _214  and  _216
REMARK   82  A    between atoms: _216  and  _217
REMARK   83  A    between atoms: _216  and  _219
REMARK   84  A    between atoms: _219  and  _220
REMARK   85  A    between atoms: _222  and  _224
REMARK   86  A    between atoms: _224  and  _225
REMARK   87  A    between atoms: _224  and  _227
REMARK   88  A    between atoms: _227  and  _228
REMARK   89  A    between atoms: _233  and  _235
REMARK   90  A    between atoms: _235  and  _236
REMARK   91  A    between atoms: _235  and  _238
REMARK   92  A    between atoms: _241  and  _243
REMARK   93  A    between atoms: _243  and  _244
REMARK   94  A    between atoms: _243  and  _246
REMARK   95  A    between atoms: _246  and  _247
REMARK   96  A    between atoms: _250  and  _252
REMARK   97  A    between atoms: _252  and  _253
REMARK   98  A    between atoms: _252  and  _255
REMARK   99  A    between atoms: _255  and  _256
REMARK  100  A    between atoms: _259  and  _261
REMARK  101  A    between atoms: _261  and  _262
REMARK  102  A    between atoms: _261  and  _264
REMARK  103  A    between atoms: _264  and  _265
REMARK  104  A    between atoms: _270  and  _272
REMARK  105  A    between atoms: _272  and  _273
REMARK  106  A    between atoms: _272  and  _275
REMARK  107  A    between atoms: _275  and  _276
REMARK  108  A    between atoms: _286  and  _288
REMARK  109  A    between atoms: _288  and  _289
REMARK  110  A    between atoms: _288  and  _291
REMARK  111  A    between atoms: _291  and  _292
REMARK  112  A    between atoms: _292  and  _293
REMARK  113  A    between atoms: _296  and  _298
REMARK  114  A    between atoms: _298  and  _299
REMARK  115  A    between atoms: _298  and  _301
REMARK  116  A    between atoms: _301  and  _302
REMARK  117  A    between atoms: _307  and  _308
REMARK  118  A    between atoms: _310  and  _312
REMARK  119  A    between atoms: _312  and  _313
REMARK  120  A    between atoms: _312  and  _315
REMARK  121  A    between atoms: _315  and  _316
REMARK  122  A    between atoms: _319  and  _321
REMARK  123  A    between atoms: _321  and  _322
REMARK  124  A    between atoms: _325  and  _327
REMARK  125  A    between atoms: _327  and  _328
REMARK  126  A    between atoms: _330  and  _332
REMARK  127  A    between atoms: _332  and  _333
REMARK  128  A    between atoms: _332  and  _335
REMARK  129  A    between atoms: _335  and  _336
REMARK  130  A    between atoms: _341  and  _343
REMARK  131  A    between atoms: _343  and  _344
REMARK  132  A    between atoms: _343  and  _346
REMARK  133  A    between atoms: _346  and  _347
REMARK  134  A    between atoms: _350  and  _352
REMARK  135  A    between atoms: _352  and  _353
REMARK  136  A    between atoms: _352  and  _355
REMARK  137  A    between atoms: _355  and  _356
REMARK  138  A    between atoms: _356  and  _357
REMARK  139  A    between atoms: _359  and  _361
REMARK  140  A    between atoms: _361  and  _362
REMARK  141  A    between atoms: _361  and  _364
REMARK  142  A    between atoms: _364  and  _365
REMARK  143  A    between atoms: _368  and  _370
REMARK  144  A    between atoms: _370  and  _371
REMARK  145  A    between atoms: _370  and  _373
REMARK  146  A    between atoms: _373  and  _374
REMARK  147  A    between atoms: _379  and  _380
REMARK  148  A    between atoms: _382  and  _384
REMARK  149  A    between atoms: _384  and  _385
REMARK  150  A    between atoms: _384  and  _387
REMARK  151  A    between atoms: _387  and  _388
REMARK  152  A    between atoms: _391  and  _393
REMARK  153  A    between atoms: _393  and  _394
REMARK  154  A    between atoms: _393  and  _396
REMARK  155  A    between atoms: _396  and  _397
REMARK  156  A    between atoms: _407  and  _409
REMARK  157  A    between atoms: _409  and  _410
REMARK  158  A    between atoms: _409  and  _412
REMARK  159  A    between atoms: _412  and  _413
REMARK  160  A    between atoms: _413  and  _414
REMARK  161  A    between atoms: _419  and  _421
REMARK  162  A    between atoms: _421  and  _422
REMARK  163  A    between atoms: _424  and  _426
REMARK  164  A    between atoms: _426  and  _427
REMARK  165  A    between atoms: _426  and  _429
REMARK  166  A    between atoms: _433  and  _434
REMARK  167  A    between atoms: _439  and  _441
REMARK  168  A    between atoms: _441  and  _442
REMARK  169  A    between atoms: _441  and  _444
REMARK  170  A    between atoms: _444  and  _445
REMARK  171  A    between atoms: _451  and  _453
REMARK  172  A    between atoms: _453  and  _454
REMARK  173  A    between atoms: _453  and  _456
REMARK  174  A    between atoms: _456  and  _457
REMARK  175  A    between atoms: _462  and  _463
REMARK  176  A    between atoms: _465  and  _467
REMARK  177  A    between atoms: _467  and  _468
REMARK  178  A    between atoms: _470  and  _472
REMARK  179  A    between atoms: _472  and  _473
REMARK  180  A    between atoms: _472  and  _475
REMARK  181  A    between atoms: _475  and  _476
REMARK  182  A    between atoms: _476  and  _477
REMARK  183  A    between atoms: _477  and  _478
REMARK  184  A    between atoms: _487  and  _489
REMARK  185  A    between atoms: _489  and  _490
REMARK  186  A    between atoms: _489  and  _492
REMARK  187  A    between atoms: _492  and  _493
REMARK  188  A    between atoms: _496  and  _498
REMARK  189  A    between atoms: _498  and  _499
REMARK  190  A    between atoms: _498  and  _501
REMARK  191  A    between atoms: _501  and  _502
REMARK  192  A    between atoms: _502  and  _503
REMARK  193  A    between atoms: _506  and  _508
REMARK  194  A    between atoms: _508  and  _509
REMARK  195  A    between atoms: _508  and  _511
REMARK  196  A    between atoms: _511  and  _512
REMARK  197  A    between atoms: _512  and  _513
REMARK  198  A    between atoms: _513  and  _514
REMARK  199  A    between atoms: _523  and  _525
REMARK  200  A    between atoms: _525  and  _526
REMARK  201  A    between atoms: _525  and  _528
REMARK  202  A    between atoms: _528  and  _529
REMARK  203  A    between atoms: _532  and  _534
REMARK  204  A    between atoms: _534  and  _535
REMARK  205  A    between atoms: _534  and  _537
REMARK  206  A    between atoms: _537  and  _538
REMARK  207  A    between atoms: _538  and  _539
REMARK  208  A    between atoms: _539  and  _540
REMARK  209  A    between atoms: _540  and  _541
REMARK  210  A    between atoms: _545  and  _547
REMARK  211  A    between atoms: _547  and  _548
REMARK  212  A    between atoms: _547  and  _550
REMARK  213  A    between atoms: _550  and  _551
REMARK  214  A    between atoms: _554  and  _556
REMARK  215  A    between atoms: _556  and  _557
REMARK  216  A    between atoms: _556  and  _559
REMARK  217  A    between atoms: _559  and  _560
REMARK  218  A    between atoms: _560  and  _561
REMARK  219  A    between atoms: _561  and  _562
REMARK  220  A    between atoms: _571  and  _573
REMARK  221  A    between atoms: _573  and  _574
REMARK  222  A    between atoms: _573  and  _576
REMARK  223  A    between atoms: _576  and  _577
REMARK  224  A    between atoms: _580  and  _582
REMARK  225  A    between atoms: _582  and  _583
REMARK  226  A    between atoms: _586  and  _588
REMARK  227  A    between atoms: _588  and  _589
REMARK  228  A    between atoms: _588  and  _591
REMARK  229  A    between atoms: _591  and  _592
REMARK  230  A    between atoms: _594  and  _596
REMARK  231  A    between atoms: _596  and  _597
REMARK  232  A    between atoms: _596  and  _599
REMARK  233  A    between atoms: _599  and  _600
REMARK  234  A    between atoms: _600  and  _601
REMARK  235  A    between atoms: _603  and  _605
REMARK  236  A    between atoms: _605  and  _606
REMARK  237  A    between atoms: _605  and  _608
REMARK  238  A    between atoms: _608  and  _609
REMARK  239  A    between atoms: _615  and  _617
REMARK  240  A    between atoms: _617  and  _618
REMARK  241  A    between atoms: _617  and  _620
REMARK  242  A    between atoms: _620  and  _621
REMARK  243  A    between atoms: _631  and  _633
REMARK  244  A    between atoms: _633  and  _634
REMARK  245  A    between atoms: _633  and  _636
REMARK  246  A    between atoms: _636  and  _637
REMARK  247  A    between atoms: _642  and  _644
REMARK  248  A    between atoms: _644  and  _645
REMARK  249  A    between atoms: _644  and  _647
REMARK  250  A    between atoms: _647  and  _648
REMARK  251  A    between atoms: _648  and  _649
REMARK                            x       y       z     vdW  Elec       q    Type
REMARK                         _______ _______ _______ _____ _____    ______ ____
ROOT
ATOM      1  CA  VAL A   1       5.281  41.192  94.865  0.00  0.00    +0.133 C 
ENDROOT
BRANCH   1   2
ATOM      2  CB  VAL A   1       4.856  40.442  96.143  0.00  0.00    +0.023 C 
ATOM      3  CG2 VAL A   1       5.266  41.233  97.374  0.00  0.00    +0.002 C 
ATOM      4  CG1 VAL A   1       5.479  39.064  96.170  0.00  0.00    +0.002 C 
ENDBRANCH   1   2
BRANCH   1   5
ATOM      5  N   VAL A   1       6.741  41.145  94.685  0.00  0.00    -0.239 NA
ATOM      6  H   VAL A   1       7.307  40.635  95.392  0.00  0.00    +0.142 HD
ENDBRANCH   1   5
BRANCH   1   7
ATOM      7  C   VAL A   1       4.585  42.557  94.911  0.00  0.00    +0.224 C 
ATOM      8  O   VAL A   1       3.393  42.652  94.598  0.00  0.00    -0.287 OA
ENDBRANCH   1   7
TORSDOF 3
REMARK  Name = ../refined-set-2016/1ogg/1ogg_pocket.pdb
REMARK  251 active torsions:
REMARK  status: ('A' for Active; 'I' for Inactive)
REMARK    1  A    between atoms: _1  and  _3
REMARK    2  A    between atoms: _3  and  _4
REMARK    3  A    between atoms: _3  and  _6
REMARK    4  A    between atoms: _6  and  _7
REMARK    5  A    between atoms: _10  and  _12
REMARK    6  A    between atoms: _12  and  _13
REMARK    7  A    between atoms: _15  and  _17
REMARK    8  A    between atoms: _17  and  _18
REMARK    9  A    between atoms: _17  and  _20
REMARK   10  A    between atoms: _20  and  _21
REMARK   11  A    between atoms: _26  and  _27
REMARK   12  A    between atoms: _29  and  _31
REMARK   13  A    between atoms: _31  and  _32
REMARK   14  A    between atoms: _31  and  _34
REMARK   15  A    between atoms: _34  and  _35
REMARK   16  A    between atoms: _40  and  _41
REMARK   17  A    between atoms: _43  and  _45
REMARK   18  A    between atoms: _45  and  _46
REMARK   19  A    between atoms: _45  and  _48
REMARK   20  A    between atoms: _48  and  _49
REMARK   21  A    between atoms: _55  and  _57
REMARK   22  A    between atoms: _57  and  _58
REMARK   23  A    between atoms: _57  and  _60
REMARK   24  A    between atoms: _60  and  _61
REMARK   25  A    between atoms: _65  and  _66
REMARK   26  A    between atoms: _71  and  _73
REMARK   27  A    between atoms: _73  and  _74
REMARK   28  A    between atoms: _73  and  _76
REMARK   29  A    between atoms: _76  and  _77
REMARK   30  A    between atoms: _80  and  _82
REMARK   31  A    between atoms: _82  and  _83
REMARK   32  A    between atoms: _82  and  _85
REMARK   33  A    between atoms: _85  and  _86
REMARK   34  A    between atoms: _91  and  _93
REMARK   35  A    between atoms: _93  and  _94
REMARK   36  A    between atoms: _93  and  _96
REMARK   37  A    between atoms: _96  and  _97
REMARK   38  A    between atoms: _97  and  _98
REMARK   39  A    between atoms: _103  and  _105
REMARK   40  A    between atoms: _105  and  _106
REMARK   41  A    between atoms: _105  and  _108
REMARK   42  A    between atoms: _108  and  _109
REMARK   43  A    between atoms: _114  and  _116
REMARK   44  A    between atoms: _116  and  _117
REMARK   45  A    between atoms: _116  and  _119
REMARK   46  A    between atoms: _119  and  _120
REMARK   47  A    between atoms: _122  and  _124
REMARK   48  A    between atoms: _124  and  _125
REMARK   49  A    between atoms: _124  and  _127
REMARK   50  A    between atoms: _127  and  _128
REMARK   51  A    between atoms: _134  and  _136
REMARK   52  A    between atoms: _136  and  _137
REMARK   53  A    between atoms: _136  and  _139
REMARK   54  A    between atoms: _139  and  _140
REMARK   55  A    between atoms: _143  and  _145
REMARK   56  A    between atoms: _145  and  _146
REMARK   57  A    between atoms: _145  and  _148
REMARK   58  A    between atoms: _148  and  _149
REMARK   59  A    between atoms: _151  and  _153
REMARK   60  A    between atoms: _153  and  _154
REMARK   61  A    between atoms: _153  and  _156
REMARK   62  A    between atoms: _156  and  _157
REMARK   63  A    between atoms: _160  and  _162
REMARK   64  A    between atoms: _162  and  _163
REMARK   65  A    between atoms: _165  and  _167
REMARK   66  A    between atoms: _167  and  _168
REMARK   67  A    between atoms: _170  and  _172
REMARK   68  A    between atoms: _172  and  _173
REMARK   69  A    between atoms: _172  and  _175
REMARK   70  A    between atoms: _175  and  _176
REMARK   71  A    between atoms: _186  and  _188
REMARK   72  A    between atoms: _188  and  _189
REMARK   73  A    between atoms: _188  and  _191
REMARK   74  A    between atoms: _191  and  _192
REMARK   75  A    between atoms: _197  and  _198
REMARK   76  A    between atoms: _200  and  _202
REMARK   77  A    between atoms: _202  and  _203
REMARK   78  A    between atoms: _202  and  _205
REMARK   79  A    between atoms: _205  and  _206
REMARK   80  A    between atoms: _211  and  _212
REMARK   81  A    between atoms: _214  and  _216
REMARK   82  A    between atoms: _216  and  _217
REMARK   83  A    between atoms: _216  and  _219
REMARK   84  A    between atoms: _219  and  _220
REMARK   85  A    between atoms: _222  and  _224
REMARK   86  A    between atoms: _224  and  _225
REMARK   87  A    between atoms: _224  and  _227
REMARK   88  A    between atoms: _227  and  _228
REMARK   89  A    between atoms: _233  and  _235
REMARK   90  A    between atoms: _235  and  _236
REMARK   91  A    between atoms: _235  and  _238
REMARK   92  A    between atoms: _241  and  _243
REMARK   93  A    between atoms: _243  and  _244
REMARK   94  A    between atoms: _243  and  _246
REMARK   95  A    between atoms: _246  and  _247
REMARK   96  A    between atoms: _250  and  _252
REMARK   97  A    between atoms: _252  and  _253
REMARK   98  A    between atoms: _252  and  _255
REMARK   99  A    between atoms: _255  and  _256
REMARK  100  A    between atoms: _259  and  _261
REMARK  101  A    between atoms: _261  and  _262
REMARK  102  A    between atoms: _261  and  _264
REMARK  103  A    between atoms: _264  and  _265
REMARK  104  A    between atoms: _270  and  _272
REMARK  105  A    between atoms: _272  and  _273
REMARK  106  A    between atoms: _272  and  _275
REMARK  107  A    between atoms: _275  and  _276
REMARK  108  A    between atoms: _286  and  _288
REMARK  109  A    between atoms: _288  and  _289
REMARK  110  A    between atoms: _288  and  _291
REMARK  111  A    between atoms: _291  and  _292
REMARK  112  A    between atoms: _292  and  _293
REMARK  113  A    between atoms: _296  and  _298
REMARK  114  A    between atoms: _298  and  _299
REMARK  115  A    between atoms: _298  and  _301
REMARK  116  A    between atoms: _301  and  _302
REMARK  117  A    between atoms: _307  and  _308
REMARK  118  A    between atoms: _310  and  _312
REMARK  119  A    between atoms: _312  and  _313
REMARK  120  A    between atoms: _312  and  _315
REMARK  121  A    between atoms: _315  and  _316
REMARK  122  A    between atoms: _319  and  _321
REMARK  123  A    between atoms: _321  and  _322
REMARK  124  A    between atoms: _325  and  _327
REMARK  125  A    between atoms: _327  and  _328
REMARK  126  A    between atoms: _330  and  _332
REMARK  127  A    between atoms: _332  and  _333
REMARK  128  A    between atoms: _332  and  _335
REMARK  129  A    between atoms: _335  and  _336
REMARK  130  A    between atoms: _341  and  _343
REMARK  131  A    between atoms: _343  and  _344
REMARK  132  A    between atoms: _343  and  _346
REMARK  133  A    between atoms: _346  and  _347
REMARK  134  A    between atoms: _350  and  _352
REMARK  135  A    between atoms: _352  and  _353
REMARK  136  A    between atoms: _352  and  _355
REMARK  137  A    between atoms: _355  and  _356
REMARK  138  A    between atoms: _356  and  _357
REMARK  139  A    between atoms: _359  and  _361
REMARK  140  A    between atoms: _361  and  _362
REMARK  141  A    between atoms: _361  and  _364
REMARK  142  A    between atoms: _364  and  _365
REMARK  143  A    between atoms: _368  and  _370
REMARK  144  A    between atoms: _370  and  _371
REMARK  145  A    between atoms: _370  and  _373
REMARK  146  A    between atoms: _373  and  _374
REMARK  147  A    between atoms: _379  and  _380
REMARK  148  A    between atoms: _382  and  _384
REMARK  149  A    between atoms: _384  and  _385
REMARK  150  A    between atoms: _384  and  _387
REMARK  151  A    between atoms: _387  and  _388
REMARK  152  A    between atoms: _391  and  _393
REMARK  153  A    between atoms: _393  and  _394
REMARK  154  A    between atoms: _393  and  _396
REMARK  155  A    between atoms: _396  and  _397
REMARK  156  A    between atoms: _407  and  _409
REMARK  157  A    between atoms: _409  and  _410
REMARK  158  A    between atoms: _409  and  _412
REMARK  159  A    between atoms: _412  and  _413
REMARK  160  A    between atoms: _413  and  _414
REMARK  161  A    between atoms: _419  and  _421
REMARK  162  A    between atoms: _421  and  _422
REMARK  163  A    between atoms: _424  and  _426
REMARK  164  A    between atoms: _426  and  _427
REMARK  165  A    between atoms: _426  and  _429
REMARK  166  A    between atoms: _433  and  _434
REMARK  167  A    between atoms: _439  and  _441
REMARK  168  A    between atoms: _441  and  _442
REMARK  169  A    between atoms: _441  and  _444
REMARK  170  A    between atoms: _444  and  _445
REMARK  171  A    between atoms: _451  and  _453
REMARK  172  A    between atoms: _453  and  _454
REMARK  173  A    between atoms: _453  and  _456
REMARK  174  A    between atoms: _456  and  _457
REMARK  175  A    between atoms: _462  and  _463
REMARK  176  A    between atoms: _465  and  _467
REMARK  177  A    between atoms: _467  and  _468
REMARK  178  A    between atoms: _470  and  _472
REMARK  179  A    between atoms: _472  and  _473
REMARK  180  A    between atoms: _472  and  _475
REMARK  181  A    between atoms: _475  and  _476
REMARK  182  A    between atoms: _476  and  _477
REMARK  183  A    between atoms: _477  and  _478
REMARK  184  A    between atoms: _487  and  _489
REMARK  185  A    between atoms: _489  and  _490
REMARK  186  A    between atoms: _489  and  _492
REMARK  187  A    between atoms: _492  and  _493
REMARK  188  A    between atoms: _496  and  _498
REMARK  189  A    between atoms: _498  and  _499
REMARK  190  A    between atoms: _498  and  _501
REMARK  191  A    between atoms: _501  and  _502
REMARK  192  A    between atoms: _502  and  _503
REMARK  193  A    between atoms: _506  and  _508
REMARK  194  A    between atoms: _508  and  _509
REMARK  195  A    between atoms: _508  and  _511
REMARK  196  A    between atoms: _511  and  _512
REMARK  197  A    between atoms: _512  and  _513
REMARK  198  A    between atoms: _513  and  _514
REMARK  199  A    between atoms: _523  and  _525
REMARK  200  A    between atoms: _525  and  _526
REMARK  201  A    between atoms: _525  and  _528
REMARK  202  A    between atoms: _528  and  _529
REMARK  203  A    between atoms: _532  and  _534
REMARK  204  A    between atoms: _534  and  _535
REMARK  205  A    between atoms: _534  and  _537
REMARK  206  A    between atoms: _537  and  _538
REMARK  207  A    between atoms: _538  and  _539
REMARK  208  A    between atoms: _539  and  _540
REMARK  209  A    between atoms: _540  and  _541
REMARK  210  A    between atoms: _545  and  _547
REMARK  211  A    between atoms: _547  and  _548
REMARK  212  A    between atoms: _547  and  _550
REMARK  213  A    between atoms: _550  and  _551
REMARK  214  A    between atoms: _554  and  _556
REMARK  215  A    between atoms: _556  and  _557
REMARK  216  A    between atoms: _556  and  _559
REMARK  217  A    between atoms: _559  and  _560
REMARK  218  A    between atoms: _560  and  _561
REMARK  219  A    between atoms: _561  and  _562
REMARK  220  A    between atoms: _571  and  _573
REMARK  221  A    between atoms: _573  and  _574
REMARK  222  A    between atoms: _573  and  _576
REMARK  223  A    between atoms: _576  and  _577
REMARK  224  A    between atoms: _580  and  _582
REMARK  225  A    between atoms: _582  and  _583
REMARK  226  A    between atoms: _586  and  _588
REMARK  227  A    between atoms: _588  and  _589
REMARK  228  A    between atoms: _588  and  _591
REMARK  229  A    between atoms: _591  and  _592
REMARK  230  A    between atoms: _594  and  _596
REMARK  231  A    between atoms: _596  and  _597
REMARK  232  A    between atoms: _596  and  _599
REMARK  233  A    between atoms: _599  and  _600
REMARK  234  A    between atoms: _600  and  _601
REMARK  235  A    between atoms: _603  and  _605
REMARK  236  A    between atoms: _605  and  _606
REMARK  237  A    between atoms: _605  and  _608
REMARK  238  A    between atoms: _608  and  _609
REMARK  239  A    between atoms: _615  and  _617
REMARK  240  A    between atoms: _617  and  _618
REMARK  241  A    between atoms: _617  and  _620
REMARK  242  A    between atoms: _620  and  _621
REMARK  243  A    between atoms: _631  and  _633
REMARK  244  A    between atoms: _633  and  _634
REMARK  245  A    between atoms: _633  and  _636
REMARK  246  A    between atoms: _636  and  _637
REMARK  247  A    between atoms: _642  and  _644
REMARK  248  A    between atoms: _644  and  _645
REMARK  249  A    between atoms: _644  and  _647
REMARK  250  A    between atoms: _647  and  _648
REMARK  251  A    between atoms: _648  and  _649
REMARK                            x       y       z     vdW  Elec       q    Type
REMARK                         _______ _______ _______ _____ _____    ______ ____
ROOT
ATOM      1  CA  TRP A   4      13.303  50.572  97.005  0.00  0.00    +0.153 C 
ENDROOT
BRANCH   1   2
ATOM      2  C   TRP A   4      14.510  50.051  96.240  0.00  0.00    +0.241 C 
ATOM      3  N   GLU A   5      14.546  48.746  95.999  0.00  0.00    -0.297 N 
ATOM      4  H   GLU A   5      13.768  48.139  96.328  0.00  0.00    +0.150 HD
ATOM      5  O   TRP A   4      15.390  50.825  95.867  0.00  0.00    -0.273 OA
BRANCH   3   6
ATOM      6  CA  GLU A   5      15.669  48.154  95.275  0.00  0.00    +0.149 C 
BRANCH   6   7
ATOM      7  C   GLU A   5      15.296  47.694  93.856  0.00  0.00    +0.241 C 
ATOM      8  O   GLU A   5      14.962  46.535  93.654  0.00  0.00    -0.273 OA
ATOM      9  N   TYR A   6      15.361  48.574  92.863  0.00  0.00    -0.298 N 
ATOM     10  H   TYR A   6      15.122  48.232  91.910  0.00  0.00    +0.150 HD
BRANCH   9  11
ATOM     11  CA  TYR A   6      15.738  49.976  92.991  0.00  0.00    +0.141 C 
BRANCH  11  12
ATOM     12  C   TYR A   6      14.925  50.655  91.895  0.00  0.00    +0.227 C 
ATOM     13  O   TYR A   6      14.442  49.980  90.994  0.00  0.00    -0.286 OA
ENDBRANCH  11  12
BRANCH  11  14
ATOM     14  CB  TYR A   6      17.229  50.154  92.668  0.00  0.00    +0.054 C 
BRANCH  14  15
ATOM     15  CG  TYR A   6      18.175  49.403  93.599  0.00  0.00    -0.020 A 
ATOM     16  CD2 TYR A   6      18.757  50.040  94.706  0.00  0.00    -0.001 A 
ATOM     17  CE2 TYR A   6      19.570  49.333  95.610  0.00  0.00    +0.036 A 
ATOM     18  CZ  TYR A   6      19.795  47.981  95.411  0.00  0.00    +0.134 A 
ATOM     19  CE1 TYR A   6      19.235  47.321  94.313  0.00  0.00    +0.036 A 
ATOM     20  CD1 TYR A   6      18.432  48.042  93.415  0.00  0.00    -0.001 A 
BRANCH  18  21
ATOM     21  OH  TYR A   6      20.549  47.272  96.311  0.00  0.00    -0.506 OA
ATOM     22  HH  TYR A   6      19.995  46.556  96.712  0.00  0.00    +0.292 HD
ENDBRANCH  18  21
ENDBRANCH  14  15
ENDBRANCH  11  14
ENDBRANCH   9  11
ENDBRANCH   6   7
BRANCH   6  23
ATOM     23  CB  GLU A   5      16.222  46.974  96.071  0.00  0.00    +0.041 C 
BRANCH  23  24
ATOM     24  CG  GLU A   5      16.208  47.222  97.568  0.00  0.00    +0.116 C 
BRANCH  24  25
ATOM     25  CD  GLU A   5      17.115  46.294  98.344  0.00  0.00    +0.365 C 
ATOM     26  OE2 GLU A   5      17.508  46.670  99.469  0.00  0.00    -0.246 OA
ATOM     27  OE1 GLU A   5      17.429  45.188  97.848  0.00  0.00    -0.246 OA
ENDBRANCH  24  25
ENDBRANCH  23  24
ENDBRANCH   6  23
ENDBRANCH   3   6
ENDBRANCH   1   2
BRANCH   1  30
ATOM     28  C   ASN A   3      13.935  50.364  99.342  0.00  0.00    +0.241 C 
ATOM     29  O   ASN A   3      13.570  49.186  99.381  0.00  0.00    -0.273 OA
ATOM     30  N   TRP A   4      13.818  51.118  98.257  0.00  0.00    -0.297 N 
ATOM     31  H   TRP A   4      14.099  52.118  98.299  0.00  0.00    +0.150 HD
BRANCH  28  32
ATOM     32  CA  ASN A   3      14.531  51.067 100.572  0.00  0.00    +0.158 C 
BRANCH  32  34
ATOM     33  C   ILE A   2      13.984  53.369 101.133  0.00  0.00    +0.241 C 
ATOM     34  N   ASN A   3      13.615  52.098 101.041  0.00  0.00    -0.297 N 
ATOM     35  H   ASN A   3      12.647  51.831 101.311  0.00  0.00    +0.150 HD
ATOM     36  O   ILE A   2      15.101  53.756 100.805  0.00  0.00    -0.273 OA
BRANCH  33  37
ATOM     37  CA  ILE A   2      12.916  54.358 101.663  0.00  0.00    +0.148 C 
BRANCH  37  40
ATOM     38  C   ASP A   1      13.026  54.730 104.074  0.00  0.00    +0.239 C 
ATOM     39  O   ASP A   1      12.186  53.863 104.288  0.00  0.00    -0.274 OA
ATOM     40  N   ILE A   2      13.426  55.067 102.849  0.00  0.00    -0.297 N 
ATOM     41  H   ILE A   2      14.109  55.842 102.728  0.00  0.00    +0.150 HD
BRANCH  38  42
ATOM     42  CA  ASP A   1      13.634  55.486 105.253  0.00  0.00    +0.156 C 
BRANCH  42  43
ATOM     43  N   ASP A   1      12.504  55.994 106.022  0.00  0.00    -0.238 NA
ATOM     44  H   ASP A   1      11.777  55.330 106.358  0.00  0.00    +0.142 HD
ENDBRANCH  42  43
BRANCH  42  45
ATOM     45  CB  ASP A   1      14.466  54.510 106.086  0.00  0.00    +0.140 C 
BRANCH  45  46
ATOM     46  CG  ASP A   1      15.624  53.901 105.292  0.00  0.00    +0.367 C 
ATOM     47  OD2 ASP A   1      15.645  52.662 105.157  0.00  0.00    -0.246 OA
ATOM     48  OD1 ASP A   1      16.510  54.659 104.813  0.00  0.00    -0.246 OA
ENDBRANCH  45  46
ENDBRANCH  42  45
ENDBRANCH  38  42
ENDBRANCH  37  40
BRANCH  37  49
ATOM     49  CB  ILE A   2      12.565  55.328 100.530  0.00  0.00    +0.027 C 
ATOM     50  CG2 ILE A   2      11.932  54.546  99.367  0.00  0.00    +0.002 C 
BRANCH  49  51
ATOM     51  CG1 ILE A   2      11.616  56.447 101.033  0.00  0.00    +0.002 C 
ATOM     52  CD1 ILE A   2      10.393  55.969 101.724  0.00  0.00    +0.000 C 
ENDBRANCH  49  51
ENDBRANCH  37  49
ENDBRANCH  33  37
ENDBRANCH  32  34
BRANCH  32  53
ATOM     53  CB  ASN A   3      14.799  50.079 101.715  0.00  0.00    +0.114 C 
BRANCH  53  54
ATOM     54  CG  ASN A   3      15.633  48.871 101.290  0.00  0.00    +0.222 C 
ATOM     55  OD1 ASN A   3      15.481  47.787 101.865  0.00  0.00    -0.275 OA
ATOM     56  ND2 ASN A   3      16.525  49.047 100.305  0.00  0.00    -0.329 N 
ATOM     57 HD21 ASN A   3      17.123  48.254  99.997  0.00  0.00    +0.145 HD
ATOM     58 HD22 ASN A   3      16.619  49.977  99.849  0.00  0.00    +0.145 HD
ENDBRANCH  53  54
ENDBRANCH  32  53
ENDBRANCH  28  32
ENDBRANCH   1  30
BRANCH   1  59
ATOM     59  CB  TRP A   4      12.630  51.670  96.194  0.00  0.00    +0.057 C 
BRANCH  59  60
ATOM     60  CG  TRP A   4      12.089  51.241  94.847  0.00  0.00    -0.002 A 
ATOM     61  CD1 TRP A   4      12.098  49.979  94.295  0.00  0.00    +0.068 A 
ATOM     62  NE1 TRP A   4      11.481  50.001  93.059  0.00  0.00    -0.352 N 
ATOM     63  CE2 TRP A   4      11.062  51.280  92.795  0.00  0.00    +0.056 A 
ATOM     64  CZ2 TRP A   4      10.385  51.799  91.679  0.00  0.00    +0.017 A 
ATOM     65  CH2 TRP A   4      10.081  53.146  91.682  0.00  0.00    +0.001 A 
ATOM     66  CZ3 TRP A   4      10.437  53.978  92.766  0.00  0.00    +0.000 A 
ATOM     67  CE3 TRP A   4      11.114  53.457  93.880  0.00  0.00    +0.001 A 
ATOM     68  HE1 TRP A   4      11.355  49.181  92.431  0.00  0.00    +0.166 HD
ATOM     69  CD2 TRP A   4      11.432  52.088  93.900  0.00  0.00    +0.013 A 
ENDBRANCH  59  60
ENDBRANCH   1  59
TORSDOF 26
REMARK  Name = ../refined-set-2016/1ogg/1ogg_pocket.pdb
REMARK  251 active torsions:
REMARK  status: ('A' for Active; 'I' for Inactive)
REMARK    1  A    between atoms: _1  and  _3
REMARK    2  A    between atoms: _3  and  _4
REMARK    3  A    between atoms: _3  and  _6
REMARK    4  A    between atoms: _6  and  _7
REMARK    5  A    between atoms: _10  and  _12
REMARK    6  A    between atoms: _12  and  _13
REMARK    7  A    between atoms: _15  and  _17
REMARK    8  A    between atoms: _17  and  _18
REMARK    9  A    between atoms: _17  and  _20
REMARK   10  A    between atoms: _20  and  _21
REMARK   11  A    between atoms: _26  and  _27
REMARK   12  A    between atoms: _29  and  _31
REMARK   13  A    between atoms: _31  and  _32
REMARK   14  A    between atoms: _31  and  _34
REMARK   15  A    between atoms: _34  and  _35
REMARK   16  A    between atoms: _40  and  _41
REMARK   17  A    between atoms: _43  and  _45
REMARK   18  A    between atoms: _45  and  _46
REMARK   19  A    between atoms: _45  and  _48
REMARK   20  A    between atoms: _48  and  _49
REMARK   21  A    between atoms: _55  and  _57
REMARK   22  A    between atoms: _57  and  _58
REMARK   23  A    between atoms: _57  and  _60
REMARK   24  A    between atoms: _60  and  _61
REMARK   25  A    between atoms: _65  and  _66
REMARK   26  A    between atoms: _71  and  _73
REMARK   27  A    between atoms: _73  and  _74
REMARK   28  A    between atoms: _73  and  _76
REMARK   29  A    between atoms: _76  and  _77
REMARK   30  A    between atoms: _80  and  _82
REMARK   31  A    between atoms: _82  and  _83
REMARK   32  A    between atoms: _82  and  _85
REMARK   33  A    between atoms: _85  and  _86
REMARK   34  A    between atoms: _91  and  _93
REMARK   35  A    between atoms: _93  and  _94
REMARK   36  A    between atoms: _93  and  _96
REMARK   37  A    between atoms: _96  and  _97
REMARK   38  A    between atoms: _97  and  _98
REMARK   39  A    between atoms: _103  and  _105
REMARK   40  A    between atoms: _105  and  _106
REMARK   41  A    between atoms: _105  and  _108
REMARK   42  A    between atoms: _108  and  _109
REMARK   43  A    between atoms: _114  and  _116
REMARK   44  A    between atoms: _116  and  _117
REMARK   45  A    between atoms: _116  and  _119
REMARK   46  A    between atoms: _119  and  _120
REMARK   47  A    between atoms: _122  and  _124
REMARK   48  A    between atoms: _124  and  _125
REMARK   49  A    between atoms: _124  and  _127
REMARK   50  A    between atoms: _127  and  _128
REMARK   51  A    between atoms: _134  and  _136
REMARK   52  A    between atoms: _136  and  _137
REMARK   53  A    between atoms: _136  and  _139
REMARK   54  A    between atoms: _139  and  _140
REMARK   55  A    between atoms: _143  and  _145
REMARK   56  A    between atoms: _145  and  _146
REMARK   57  A    between atoms: _145  and  _148
REMARK   58  A    between atoms: _148  and  _149
REMARK   59  A    between atoms: _151  and  _153
REMARK   60  A    between atoms: _153  and  _154
REMARK   61  A    between atoms: _153  and  _156
REMARK   62  A    between atoms: _156  and  _157
REMARK   63  A    between atoms: _160  and  _162
REMARK   64  A    between atoms: _162  and  _163
REMARK   65  A    between atoms: _165  and  _167
REMARK   66  A    between atoms: _167  and  _168
REMARK   67  A    between atoms: _170  and  _172
REMARK   68  A    between atoms: _172  and  _173
REMARK   69  A    between atoms: _172  and  _175
REMARK   70  A    between atoms: _175  and  _176
REMARK   71  A    between atoms: _186  and  _188
REMARK   72  A    between atoms: _188  and  _189
REMARK   73  A    between atoms: _188  and  _191
REMARK   74  A    between atoms: _191  and  _192
REMARK   75  A    between atoms: _197  and  _198
REMARK   76  A    between atoms: _200  and  _202
REMARK   77  A    between atoms: _202  and  _203
REMARK   78  A    between atoms: _202  and  _205
REMARK   79  A    between atoms: _205  and  _206
REMARK   80  A    between atoms: _211  and  _212
REMARK   81  A    between atoms: _214  and  _216
REMARK   82  A    between atoms: _216  and  _217
REMARK   83  A    between atoms: _216  and  _219
REMARK   84  A    between atoms: _219  and  _220
REMARK   85  A    between atoms: _222  and  _224
REMARK   86  A    between atoms: _224  and  _225
REMARK   87  A    between atoms: _224  and  _227
REMARK   88  A    between atoms: _227  and  _228
REMARK   89  A    between atoms: _233  and  _235
REMARK   90  A    between atoms: _235  and  _236
REMARK   91  A    between atoms: _235  and  _238
REMARK   92  A    between atoms: _241  and  _243
REMARK   93  A    between atoms: _243  and  _244
REMARK   94  A    between atoms: _243  and  _246
REMARK   95  A    between atoms: _246  and  _247
REMARK   96  A    between atoms: _250  and  _252
REMARK   97  A    between atoms: _252  and  _253
REMARK   98  A    between atoms: _252  and  _255
REMARK   99  A    between atoms: _255  and  _256
REMARK  100  A    between atoms: _259  and  _261
REMARK  101  A    between atoms: _261  and  _262
REMARK  102  A    between atoms: _261  and  _264
REMARK  103  A    between atoms: _264  and  _265
REMARK  104  A    between atoms: _270  and  _272
REMARK  105  A    between atoms: _272  and  _273
REMARK  106  A    between atoms: _272  and  _275
REMARK  107  A    between atoms: _275  and  _276
REMARK  108  A    between atoms: _286  and  _288
REMARK  109  A    between atoms: _288  and  _289
REMARK  110  A    between atoms: _288  and  _291
REMARK  111  A    between atoms: _291  and  _292
REMARK  112  A    between atoms: _292  and  _293
REMARK  113  A    between atoms: _296  and  _298
REMARK  114  A    between atoms: _298  and  _299
REMARK  115  A    between atoms: _298  and  _301
REMARK  116  A    between atoms: _301  and  _302
REMARK  117  A    between atoms: _307  and  _308
REMARK  118  A    between atoms: _310  and  _312
REMARK  119  A    between atoms: _312  and  _313
REMARK  120  A    between atoms: _312  and  _315
REMARK  121  A    between atoms: _315  and  _316
REMARK  122  A    between atoms: _319  and  _321
REMARK  123  A    between atoms: _321  and  _322
REMARK  124  A    between atoms: _325  and  _327
REMARK  125  A    between atoms: _327  and  _328
REMARK  126  A    between atoms: _330  and  _332
REMARK  127  A    between atoms: _332  and  _333
REMARK  128  A    between atoms: _332  and  _335
REMARK  129  A    between atoms: _335  and  _336
REMARK  130  A    between atoms: _341  and  _343
REMARK  131  A    between atoms: _343  and  _344
REMARK  132  A    between atoms: _343  and  _346
REMARK  133  A    between atoms: _346  and  _347
REMARK  134  A    between atoms: _350  and  _352
REMARK  135  A    between atoms: _352  and  _353
REMARK  136  A    between atoms: _352  and  _355
REMARK  137  A    between atoms: _355  and  _356
REMARK  138  A    between atoms: _356  and  _357
REMARK  139  A    between atoms: _359  and  _361
REMARK  140  A    between atoms: _361  and  _362
REMARK  141  A    between atoms: _361  and  _364
REMARK  142  A    between atoms: _364  and  _365
REMARK  143  A    between atoms: _368  and  _370
REMARK  144  A    between atoms: _370  and  _371
REMARK  145  A    between atoms: _370  and  _373
REMARK  146  A    between atoms: _373  and  _374
REMARK  147  A    between atoms: _379  and  _380
REMARK  148  A    between atoms: _382  and  _384
REMARK  149  A    between atoms: _384  and  _385
REMARK  150  A    between atoms: _384  and  _387
REMARK  151  A    between atoms: _387  and  _388
REMARK  152  A    between atoms: _391  and  _393
REMARK  153  A    between atoms: _393  and  _394
REMARK  154  A    between atoms: _393  and  _396
REMARK  155  A    between atoms: _396  and  _397
REMARK  156  A    between atoms: _407  and  _409
REMARK  157  A    between atoms: _409  and  _410
REMARK  158  A    between atoms: _409  and  _412
REMARK  159  A    between atoms: _412  and  _413
REMARK  160  A    between atoms: _413  and  _414
REMARK  161  A    between atoms: _419  and  _421
REMARK  162  A    between atoms: _421  and  _422
REMARK  163  A    between atoms: _424  and  _426
REMARK  164  A    between atoms: _426  and  _427
REMARK  165  A    between atoms: _426  and  _429
REMARK  166  A    between atoms: _433  and  _434
REMARK  167  A    between atoms: _439  and  _441
REMARK  168  A    between atoms: _441  and  _442
REMARK  169  A    between atoms: _441  and  _444
REMARK  170  A    between atoms: _444  and  _445
REMARK  171  A    between atoms: _451  and  _453
REMARK  172  A    between atoms: _453  and  _454
REMARK  173  A    between atoms: _453  and  _456
REMARK  174  A    between atoms: _456  and  _457
REMARK  175  A    between atoms: _462  and  _463
REMARK  176  A    between atoms: _465  and  _467
REMARK  177  A    between atoms: _467  and  _468
REMARK  178  A    between atoms: _470  and  _472
REMARK  179  A    between atoms: _472  and  _473
REMARK  180  A    between atoms: _472  and  _475
REMARK  181  A    between atoms: _475  and  _476
REMARK  182  A    between atoms: _476  and  _477
REMARK  183  A    between atoms: _477  and  _478
REMARK  184  A    between atoms: _487  and  _489
REMARK  185  A    between atoms: _489  and  _490
REMARK  186  A    between atoms: _489  and  _492
REMARK  187  A    between atoms: _492  and  _493
REMARK  188  A    between atoms: _496  and  _498
REMARK  189  A    between atoms: _498  and  _499
REMARK  190  A    between atoms: _498  and  _501
REMARK  191  A    between atoms: _501  and  _502
REMARK  192  A    between atoms: _502  and  _503
REMARK  193  A    between atoms: _506  and  _508
REMARK  194  A    between atoms: _508  and  _509
REMARK  195  A    between atoms: _508  and  _511
REMARK  196  A    between atoms: _511  and  _512
REMARK  197  A    between atoms: _512  and  _513
REMARK  198  A    between atoms: _513  and  _514
REMARK  199  A    between atoms: _523  and  _525
REMARK  200  A    between atoms: _525  and  _526
REMARK  201  A    between atoms: _525  and  _528
REMARK  202  A    between atoms: _528  and  _529
REMARK  203  A    between atoms: _532  and  _534
REMARK  204  A    between atoms: _534  and  _535
REMARK  205  A    between atoms: _534  and  _537
REMARK  206  A    between atoms: _537  and  _538
REMARK  207  A    between atoms: _538  and  _539
REMARK  208  A    between atoms: _539  and  _540
REMARK  209  A    between atoms: _540  and  _541
REMARK  210  A    between atoms: _545  and  _547
REMARK  211  A    between atoms: _547  and  _548
REMARK  212  A    between atoms: _547  and  _550
REMARK  213  A    between atoms: _550  and  _551
REMARK  214  A    between atoms: _554  and  _556
REMARK  215  A    between atoms: _556  and  _557
REMARK  216  A    between atoms: _556  and  _559
REMARK  217  A    between atoms: _559  and  _560
REMARK  218  A    between atoms: _560  and  _561
REMARK  219  A    between atoms: _561  and  _562
REMARK  220  A    between atoms: _571  and  _573
REMARK  221  A    between atoms: _573  and  _574
REMARK  222  A    between atoms: _573  and  _576
REMARK  223  A    between atoms: _576  and  _577
REMARK  224  A    between atoms: _580  and  _582
REMARK  225  A    between atoms: _582  and  _583
REMARK  226  A    between atoms: _586  and  _588
REMARK  227  A    between atoms: _588  and  _589
REMARK  228  A    between atoms: _588  and  _591
REMARK  229  A    between atoms: _591  and  _592
REMARK  230  A    between atoms: _594  and  _596
REMARK  231  A    between atoms: _596  and  _597
REMARK  232  A    between atoms: _596  and  _599
REMARK  233  A    between atoms: _599  and  _600
REMARK  234  A    between atoms: _600  and  _601
REMARK  235  A    between atoms: _603  and  _605
REMARK  236  A    between atoms: _605  and  _606
REMARK  237  A    between atoms: _605  and  _608
REMARK  238  A    between atoms: _608  and  _609
REMARK  239  A    between atoms: _615  and  _617
REMARK  240  A    between atoms: _617  and  _618
REMARK  241  A    between atoms: _617  and  _620
REMARK  242  A    between atoms: _620  and  _621
REMARK  243  A    between atoms: _631  and  _633
REMARK  244  A    between atoms: _633  and  _634
REMARK  245  A    between atoms: _633  and  _636
REMARK  246  A    between atoms: _636  and  _637
REMARK  247  A    between atoms: _642  and  _644
REMARK  248  A    between atoms: _644  and  _645
REMARK  249  A    between atoms: _644  and  _647
REMARK  250  A    between atoms: _647  and  _648
REMARK  251  A    between atoms: _648  and  _649
REMARK                            x       y       z     vdW  Elec       q    Type
REMARK                         _______ _______ _______ _____ _____    ______ ____
ROOT
ATOM      1  C   ILE A   1      18.288  55.009 101.912  0.00  0.00    +0.238 C 
ATOM      2  O   ILE A   1      19.356  55.398 102.390  0.00  0.00    -0.274 OA
ATOM      3  N   ALA A   2      18.068  53.761 101.569  0.00  0.00    -0.297 N 
ATOM      4  H   ALA A   2      17.111  53.478 101.277  0.00  0.00    +0.150 HD
ENDROOT
BRANCH   3   5
ATOM      5  CA  ALA A   2      19.130  52.759 101.586  0.00  0.00    +0.149 C 
ATOM      6  CB  ALA A   2      18.575  51.413 102.018  0.00  0.00    +0.031 C 
BRANCH   5   7
ATOM      7  C   ALA A   2      19.497  52.722 100.116  0.00  0.00    +0.241 C 
ATOM      8  N   GLY A   3      20.743  53.036  99.771  0.00  0.00    -0.296 N 
ATOM      9  H   GLY A   3      21.440  53.296 100.498  0.00  0.00    +0.150 HD
ATOM     10  O   ALA A   2      18.632  52.454  99.282  0.00  0.00    -0.273 OA
BRANCH   8  11
ATOM     11  CA  GLY A   3      21.121  53.012  98.366  0.00  0.00    +0.163 C 
BRANCH  11  12
ATOM     12  C   GLY A   3      22.005  51.833  97.965  0.00  0.00    +0.229 C 
ATOM     13  O   GLY A   3      22.579  51.150  98.823  0.00  0.00    -0.286 OA
ENDBRANCH  11  12
ENDBRANCH   8  11
ENDBRANCH   5   7
ENDBRANCH   3   5
BRANCH   1  14
ATOM     14  CA  ILE A   1      17.108  55.959 101.749  0.00  0.00    +0.145 C 
BRANCH  14  15
ATOM     15  N   ILE A   1      17.399  57.074 102.638  0.00  0.00    -0.238 NA
ATOM     16  H   ILE A   1      18.370  57.443 102.692  0.00  0.00    +0.142 HD
ENDBRANCH  14  15
BRANCH  14  17
ATOM     17  CB  ILE A   1      17.013  56.321 100.225  0.00  0.00    +0.025 C 
ATOM     18  CG2 ILE A   1      16.052  57.500  99.992  0.00  0.00    +0.002 C 
BRANCH  17  19
ATOM     19  CG1 ILE A   1      18.392  56.661  99.654  0.00  0.00    +0.002 C 
ATOM     20  CD1 ILE A   1      18.362  56.936  98.148  0.00  0.00    +0.000 C 
ENDBRANCH  17  19
ENDBRANCH  14  17
ENDBRANCH   1  14
TORSDOF 8
REMARK  Name = ../refined-set-2016/1ogg/1ogg_pocket.pdb
REMARK  251 active torsions:
REMARK  status: ('A' for Active; 'I' for Inactive)
REMARK    1  A    between atoms: _1  and  _3
REMARK    2  A    between atoms: _3  and  _4
REMARK    3  A    between atoms: _3  and  _6
REMARK    4  A    between atoms: _6  and  _7
REMARK    5  A    between atoms: _10  and  _12
REMARK    6  A    between atoms: _12  and  _13
REMARK    7  A    between atoms: _15  and  _17
REMARK    8  A    between atoms: _17  and  _18
REMARK    9  A    between atoms: _17  and  _20
REMARK   10  A    between atoms: _20  and  _21
REMARK   11  A    between atoms: _26  and  _27
REMARK   12  A    between atoms: _29  and  _31
REMARK   13  A    between atoms: _31  and  _32
REMARK   14  A    between atoms: _31  and  _34
REMARK   15  A    between atoms: _34  and  _35
REMARK   16  A    between atoms: _40  and  _41
REMARK   17  A    between atoms: _43  and  _45
REMARK   18  A    between atoms: _45  and  _46
REMARK   19  A    between atoms: _45  and  _48
REMARK   20  A    between atoms: _48  and  _49
REMARK   21  A    between atoms: _55  and  _57
REMARK   22  A    between atoms: _57  and  _58
REMARK   23  A    between atoms: _57  and  _60
REMARK   24  A    between atoms: _60  and  _61
REMARK   25  A    between atoms: _65  and  _66
REMARK   26  A    between atoms: _71  and  _73
REMARK   27  A    between atoms: _73  and  _74
REMARK   28  A    between atoms: _73  and  _76
REMARK   29  A    between atoms: _76  and  _77
REMARK   30  A    between atoms: _80  and  _82
REMARK   31  A    between atoms: _82  and  _83
REMARK   32  A    between atoms: _82  and  _85
REMARK   33  A    between atoms: _85  and  _86
REMARK   34  A    between atoms: _91  and  _93
REMARK   35  A    between atoms: _93  and  _94
REMARK   36  A    between atoms: _93  and  _96
REMARK   37  A    between atoms: _96  and  _97
REMARK   38  A    between atoms: _97  and  _98
REMARK   39  A    between atoms: _103  and  _105
REMARK   40  A    between atoms: _105  and  _106
REMARK   41  A    between atoms: _105  and  _108
REMARK   42  A    between atoms: _108  and  _109
REMARK   43  A    between atoms: _114  and  _116
REMARK   44  A    between atoms: _116  and  _117
REMARK   45  A    between atoms: _116  and  _119
REMARK   46  A    between atoms: _119  and  _120
REMARK   47  A    between atoms: _122  and  _124
REMARK   48  A    between atoms: _124  and  _125
REMARK   49  A    between atoms: _124  and  _127
REMARK   50  A    between atoms: _127  and  _128
REMARK   51  A    between atoms: _134  and  _136
REMARK   52  A    between atoms: _136  and  _137
REMARK   53  A    between atoms: _136  and  _139
REMARK   54  A    between atoms: _139  and  _140
REMARK   55  A    between atoms: _143  and  _145
REMARK   56  A    between atoms: _145  and  _146
REMARK   57  A    between atoms: _145  and  _148
REMARK   58  A    between atoms: _148  and  _149
REMARK   59  A    between atoms: _151  and  _153
REMARK   60  A    between atoms: _153  and  _154
REMARK   61  A    between atoms: _153  and  _156
REMARK   62  A    between atoms: _156  and  _157
REMARK   63  A    between atoms: _160  and  _162
REMARK   64  A    between atoms: _162  and  _163
REMARK   65  A    between atoms: _165  and  _167
REMARK   66  A    between atoms: _167  and  _168
REMARK   67  A    between atoms: _170  and  _172
REMARK   68  A    between atoms: _172  and  _173
REMARK   69  A    between atoms: _172  and  _175
REMARK   70  A    between atoms: _175  and  _176
REMARK   71  A    between atoms: _186  and  _188
REMARK   72  A    between atoms: _188  and  _189
REMARK   73  A    between atoms: _188  and  _191
REMARK   74  A    between atoms: _191  and  _192
REMARK   75  A    between atoms: _197  and  _198
REMARK   76  A    between atoms: _200  and  _202
REMARK   77  A    between atoms: _202  and  _203
REMARK   78  A    between atoms: _202  and  _205
REMARK   79  A    between atoms: _205  and  _206
REMARK   80  A    between atoms: _211  and  _212
REMARK   81  A    between atoms: _214  and  _216
REMARK   82  A    between atoms: _216  and  _217
REMARK   83  A    between atoms: _216  and  _219
REMARK   84  A    between atoms: _219  and  _220
REMARK   85  A    between atoms: _222  and  _224
REMARK   86  A    between atoms: _224  and  _225
REMARK   87  A    between atoms: _224  and  _227
REMARK   88  A    between atoms: _227  and  _228
REMARK   89  A    between atoms: _233  and  _235
REMARK   90  A    between atoms: _235  and  _236
REMARK   91  A    between atoms: _235  and  _238
REMARK   92  A    between atoms: _241  and  _243
REMARK   93  A    between atoms: _243  and  _244
REMARK   94  A    between atoms: _243  and  _246
REMARK   95  A    between atoms: _246  and  _247
REMARK   96  A    between atoms: _250  and  _252
REMARK   97  A    between atoms: _252  and  _253
REMARK   98  A    between atoms: _252  and  _255
REMARK   99  A    between atoms: _255  and  _256
REMARK  100  A    between atoms: _259  and  _261
REMARK  101  A    between atoms: _261  and  _262
REMARK  102  A    between atoms: _261  and  _264
REMARK  103  A    between atoms: _264  and  _265
REMARK  104  A    between atoms: _270  and  _272
REMARK  105  A    between atoms: _272  and  _273
REMARK  106  A    between atoms: _272  and  _275
REMARK  107  A    between atoms: _275  and  _276
REMARK  108  A    between atoms: _286  and  _288
REMARK  109  A    between atoms: _288  and  _289
REMARK  110  A    between atoms: _288  and  _291
REMARK  111  A    between atoms: _291  and  _292
REMARK  112  A    between atoms: _292  and  _293
REMARK  113  A    between atoms: _296  and  _298
REMARK  114  A    between atoms: _298  and  _299
REMARK  115  A    between atoms: _298  and  _301
REMARK  116  A    between atoms: _301  and  _302
REMARK  117  A    between atoms: _307  and  _308
REMARK  118  A    between atoms: _310  and  _312
REMARK  119  A    between atoms: _312  and  _313
REMARK  120  A    between atoms: _312  and  _315
REMARK  121  A    between atoms: _315  and  _316
REMARK  122  A    between atoms: _319  and  _321
REMARK  123  A    between atoms: _321  and  _322
REMARK  124  A    between atoms: _325  and  _327
REMARK  125  A    between atoms: _327  and  _328
REMARK  126  A    between atoms: _330  and  _332
REMARK  127  A    between atoms: _332  and  _333
REMARK  128  A    between atoms: _332  and  _335
REMARK  129  A    between atoms: _335  and  _336
REMARK  130  A    between atoms: _341  and  _343
REMARK  131  A    between atoms: _343  and  _344
REMARK  132  A    between atoms: _343  and  _346
REMARK  133  A    between atoms: _346  and  _347
REMARK  134  A    between atoms: _350  and  _352
REMARK  135  A    between atoms: _352  and  _353
REMARK  136  A    between atoms: _352  and  _355
REMARK  137  A    between atoms: _355  and  _356
REMARK  138  A    between atoms: _356  and  _357
REMARK  139  A    between atoms: _359  and  _361
REMARK  140  A    between atoms: _361  and  _362
REMARK  141  A    between atoms: _361  and  _364
REMARK  142  A    between atoms: _364  and  _365
REMARK  143  A    between atoms: _368  and  _370
REMARK  144  A    between atoms: _370  and  _371
REMARK  145  A    between atoms: _370  and  _373
REMARK  146  A    between atoms: _373  and  _374
REMARK  147  A    between atoms: _379  and  _380
REMARK  148  A    between atoms: _382  and  _384
REMARK  149  A    between atoms: _384  and  _385
REMARK  150  A    between atoms: _384  and  _387
REMARK  151  A    between atoms: _387  and  _388
REMARK  152  A    between atoms: _391  and  _393
REMARK  153  A    between atoms: _393  and  _394
REMARK  154  A    between atoms: _393  and  _396
REMARK  155  A    between atoms: _396  and  _397
REMARK  156  A    between atoms: _407  and  _409
REMARK  157  A    between atoms: _409  and  _410
REMARK  158  A    between atoms: _409  and  _412
REMARK  159  A    between atoms: _412  and  _413
REMARK  160  A    between atoms: _413  and  _414
REMARK  161  A    between atoms: _419  and  _421
REMARK  162  A    between atoms: _421  and  _422
REMARK  163  A    between atoms: _424  and  _426
REMARK  164  A    between atoms: _426  and  _427
REMARK  165  A    between atoms: _426  and  _429
REMARK  166  A    between atoms: _433  and  _434
REMARK  167  A    between atoms: _439  and  _441
REMARK  168  A    between atoms: _441  and  _442
REMARK  169  A    between atoms: _441  and  _444
REMARK  170  A    between atoms: _444  and  _445
REMARK  171  A    between atoms: _451  and  _453
REMARK  172  A    between atoms: _453  and  _454
REMARK  173  A    between atoms: _453  and  _456
REMARK  174  A    between atoms: _456  and  _457
REMARK  175  A    between atoms: _462  and  _463
REMARK  176  A    between atoms: _465  and  _467
REMARK  177  A    between atoms: _467  and  _468
REMARK  178  A    between atoms: _470  and  _472
REMARK  179  A    between atoms: _472  and  _473
REMARK  180  A    between atoms: _472  and  _475
REMARK  181  A    between atoms: _475  and  _476
REMARK  182  A    between atoms: _476  and  _477
REMARK  183  A    between atoms: _477  and  _478
REMARK  184  A    between atoms: _487  and  _489
REMARK  185  A    between atoms: _489  and  _490
REMARK  186  A    between atoms: _489  and  _492
REMARK  187  A    between atoms: _492  and  _493
REMARK  188  A    between atoms: _496  and  _498
REMARK  189  A    between atoms: _498  and  _499
REMARK  190  A    between atoms: _498  and  _501
REMARK  191  A    between atoms: _501  and  _502
REMARK  192  A    between atoms: _502  and  _503
REMARK  193  A    between atoms: _506  and  _508
REMARK  194  A    between atoms: _508  and  _509
REMARK  195  A    between atoms: _508  and  _511
REMARK  196  A    between atoms: _511  and  _512
REMARK  197  A    between atoms: _512  and  _513
REMARK  198  A    between atoms: _513  and  _514
REMARK  199  A    between atoms: _523  and  _525
REMARK  200  A    between atoms: _525  and  _526
REMARK  201  A    between atoms: _525  and  _528
REMARK  202  A    between atoms: _528  and  _529
REMARK  203  A    between atoms: _532  and  _534
REMARK  204  A    between atoms: _534  and  _535
REMARK  205  A    between atoms: _534  and  _537
REMARK  206  A    between atoms: _537  and  _538
REMARK  207  A    between atoms: _538  and  _539
REMARK  208  A    between atoms: _539  and  _540
REMARK  209  A    between atoms: _540  and  _541
REMARK  210  A    between atoms: _545  and  _547
REMARK  211  A    between atoms: _547  and  _548
REMARK  212  A    between atoms: _547  and  _550
REMARK  213  A    between atoms: _550  and  _551
REMARK  214  A    between atoms: _554  and  _556
REMARK  215  A    between atoms: _556  and  _557
REMARK  216  A    between atoms: _556  and  _559
REMARK  217  A    between atoms: _559  and  _560
REMARK  218  A    between atoms: _560  and  _561
REMARK  219  A    between atoms: _561  and  _562
REMARK  220  A    between atoms: _571  and  _573
REMARK  221  A    between atoms: _573  and  _574
REMARK  222  A    between atoms: _573  and  _576
REMARK  223  A    between atoms: _576  and  _577
REMARK  224  A    between atoms: _580  and  _582
REMARK  225  A    between atoms: _582  and  _583
REMARK  226  A    between atoms: _586  and  _588
REMARK  227  A    between atoms: _588  and  _589
REMARK  228  A    between atoms: _588  and  _591
REMARK  229  A    between atoms: _591  and  _592
REMARK  230  A    between atoms: _594  and  _596
REMARK  231  A    between atoms: _596  and  _597
REMARK  232  A    between atoms: _596  and  _599
REMARK  233  A    between atoms: _599  and  _600
REMARK  234  A    between atoms: _600  and  _601
REMARK  235  A    between atoms: _603  and  _605
REMARK  236  A    between atoms: _605  and  _606
REMARK  237  A    between atoms: _605  and  _608
REMARK  238  A    between atoms: _608  and  _609
REMARK  239  A    between atoms: _615  and  _617
REMARK  240  A    between atoms: _617  and  _618
REMARK  241  A    between atoms: _617  and  _620
REMARK  242  A    between atoms: _620  and  _621
REMARK  243  A    between atoms: _631  and  _633
REMARK  244  A    between atoms: _633  and  _634
REMARK  245  A    between atoms: _633  and  _636
REMARK  246  A    between atoms: _636  and  _637
REMARK  247  A    between atoms: _642  and  _644
REMARK  248  A    between atoms: _644  and  _645
REMARK  249  A    between atoms: _644  and  _647
REMARK  250  A    between atoms: _647  and  _648
REMARK  251  A    between atoms: _648  and  _649
REMARK                            x       y       z     vdW  Elec       q    Type
REMARK                         _______ _______ _______ _____ _____    ______ ____
ROOT
ATOM      1  C   MET A   3      25.571  48.228 100.627  0.00  0.00    +0.241 C 
ATOM      2  N   THR A   4      26.693  48.627 101.217  0.00  0.00    -0.295 N 
ATOM      3  H   THR A   4      26.642  49.300 102.008  0.00  0.00    +0.150 HD
ATOM      4  O   MET A   3      25.542  47.413  99.680  0.00  0.00    -0.273 OA
ENDROOT
BRANCH   1   5
ATOM      5  CA  MET A   3      24.297  48.837 101.209  0.00  0.00    +0.149 C 
BRANCH   5   8
ATOM      6  C   LEU A   2      24.930  51.084 101.697  0.00  0.00    +0.241 C 
ATOM      7  O   LEU A   2      25.572  50.706 102.684  0.00  0.00    -0.273 OA
ATOM      8  N   MET A   3      24.277  50.250 100.902  0.00  0.00    -0.297 N 
ATOM      9  H   MET A   3      23.760  50.605 100.072  0.00  0.00    +0.150 HD
BRANCH   6  10
ATOM     10  CA  LEU A   2      24.903  52.534 101.306  0.00  0.00    +0.149 C 
BRANCH  10  12
ATOM     11  C   ASN A   1      23.101  53.481 102.606  0.00  0.00    +0.239 C 
ATOM     12  N   LEU A   2      24.404  53.411 102.358  0.00  0.00    -0.297 N 
ATOM     13  H   LEU A   2      25.070  53.983 102.916  0.00  0.00    +0.150 HD
ATOM     14  O   ASN A   1      22.276  52.781 102.011  0.00  0.00    -0.274 OA
BRANCH  11  15
ATOM     15  CA  ASN A   1      22.672  54.491 103.667  0.00  0.00    +0.154 C 
BRANCH  15  16
ATOM     16  N   ASN A   1      22.109  55.670 103.020  0.00  0.00    -0.238 NA
ATOM     17  H   ASN A   1      21.089  55.678 102.816  0.00  0.00    +0.142 HD
ENDBRANCH  15  16
BRANCH  15  18
ATOM     18  CB  ASN A   1      21.617  53.900 104.611  0.00  0.00    +0.111 C 
BRANCH  18  19
ATOM     19  CG  ASN A   1      21.243  54.858 105.752  0.00  0.00    +0.221 C 
ATOM     20  ND2 ASN A   1      20.032  54.689 106.302  0.00  0.00    -0.329 N 
ATOM     21 HD21 ASN A   1      19.733  55.290 107.096  0.00  0.00    +0.145 HD
ATOM     22 HD22 ASN A   1      19.392  53.957 105.935  0.00  0.00    +0.145 HD
ATOM     23  OD1 ASN A   1      22.044  55.718 106.154  0.00  0.00    -0.275 OA
ENDBRANCH  18  19
ENDBRANCH  15  18
ENDBRANCH  11  15
ENDBRANCH  10  12
BRANCH  10  24
ATOM     24  CB  LEU A   2      26.318  52.957 100.903  0.00  0.00    +0.029 C 
BRANCH  24  25
ATOM     25  CG  LEU A   2      26.508  54.431 100.553  0.00  0.00    +0.002 C 
ATOM     26  CD2 LEU A   2      27.965  54.623 100.091  0.00  0.00    +0.000 C 
ATOM     27  CD1 LEU A   2      25.544  54.859  99.453  0.00  0.00    +0.000 C 
ENDBRANCH  24  25
ENDBRANCH  10  24
ENDBRANCH   6  10
ENDBRANCH   5   8
BRANCH   5  28
ATOM     28  CB  MET A   3      23.033  48.173 100.667  0.00  0.00    +0.041 C 
BRANCH  28  29
ATOM     29  CG  MET A   3      21.799  48.735 101.367  0.00  0.00    +0.060 C 
BRANCH  29  30
ATOM     30  SD  MET A   3      20.279  47.939 100.781  0.00  0.00    -0.139 S 
ATOM     31  CE  MET A   3      20.121  48.745  99.222  0.00  0.00    +0.069 C 
ENDBRANCH  29  30
ENDBRANCH  28  29
ENDBRANCH   5  28
ENDBRANCH   1   5
BRANCH   2  32
ATOM     32  CA  THR A   4      27.991  48.140 100.777  0.00  0.00    +0.176 C 
BRANCH  32  33
ATOM     33  C   THR A   4      28.303  46.762 101.351  0.00  0.00    +0.243 C 
ATOM     34  O   THR A   4      29.162  46.607 102.218  0.00  0.00    -0.273 OA
ATOM     35  N   TYR A   5      27.543  45.786 100.856  0.00  0.00    -0.297 N 
ATOM     36  H   TYR A   5      26.802  46.065 100.181  0.00  0.00    +0.150 HD
BRANCH  35  37
ATOM     37  CA  TYR A   5      27.647  44.374 101.165  0.00  0.00    +0.153 C 
BRANCH  37  38
ATOM     38  C   TYR A   5      26.875  43.605 100.066  0.00  0.00    +0.241 C 
ATOM     39  N   ASP A   6      26.762  42.282 100.186  0.00  0.00    -0.298 N 
ATOM     40  H   ASP A   6      27.106  41.812 101.047  0.00  0.00    +0.150 HD
ATOM     41  O   TYR A   5      26.376  44.221  99.116  0.00  0.00    -0.273 OA
BRANCH  39  42
ATOM     42  CA  ASP A   6      26.154  41.480  99.110  0.00  0.00    +0.148 C 
BRANCH  42  43
ATOM     43  C   ASP A   6      26.917  41.762  97.791  0.00  0.00    +0.227 C 
ATOM     44  O   ASP A   6      26.325  41.771  96.695  0.00  0.00    -0.286 OA
ENDBRANCH  42  43
BRANCH  42  45
ATOM     45  CB  ASP A   6      24.668  41.812  98.913  0.00  0.00    +0.142 C 
BRANCH  45  46
ATOM     46  CG  ASP A   6      23.841  41.473 100.120  0.00  0.00    +0.367 C 
ATOM     47  OD2 ASP A   6      24.217  40.520 100.840  0.00  0.00    -0.246 OA
ATOM     48  OD1 ASP A   6      22.812  42.157 100.341  0.00  0.00    -0.246 OA
ENDBRANCH  45  46
ENDBRANCH  42  45
ENDBRANCH  39  42
ENDBRANCH  37  38
BRANCH  37  49
ATOM     49  CB  TYR A   5      27.145  44.057 102.583  0.00  0.00    +0.055 C 
BRANCH  49  50
ATOM     50  CG  TYR A   5      25.868  44.760 103.003  0.00  0.00    -0.020 A 
ATOM     51  CD2 TYR A   5      25.891  45.752 103.981  0.00  0.00    -0.001 A 
ATOM     52  CE2 TYR A   5      24.711  46.418 104.376  0.00  0.00    +0.036 A 
ATOM     53  CZ  TYR A   5      23.501  46.072 103.786  0.00  0.00    +0.134 A 
ATOM     54  CE1 TYR A   5      23.462  45.073 102.816  0.00  0.00    +0.036 A 
ATOM     55  CD1 TYR A   5      24.643  44.430 102.428  0.00  0.00    -0.001 A 
BRANCH  53  56
ATOM     56  OH  TYR A   5      22.332  46.745 104.144  0.00  0.00    -0.506 OA
ATOM     57  HH  TYR A   5      21.570  46.375 103.632  0.00  0.00    +0.292 HD
ENDBRANCH  53  56
ENDBRANCH  49  50
ENDBRANCH  37  49
ENDBRANCH  35  37
ENDBRANCH  32  33
BRANCH  32  58
ATOM     58  CB  THR A   4      29.096  49.149 101.140  0.00  0.00    +0.137 C 
ATOM     59  CG2 THR A   4      29.122  50.298 100.106  0.00  0.00    +0.034 C 
BRANCH  58  60
ATOM     60  OG1 THR A   4      28.820  49.707 102.423  0.00  0.00    -0.382 OA
ATOM     61  HG1 THR A   4      28.796  48.983 103.098  0.00  0.00    +0.210 HD
ENDBRANCH  58  60
ENDBRANCH  32  58
ENDBRANCH   2  32
TORSDOF 26
REMARK  Name = ../refined-set-2016/1ogg/1ogg_pocket.pdb
REMARK  251 active torsions:
REMARK  status: ('A' for Active; 'I' for Inactive)
REMARK    1  A    between atoms: _1  and  _3
REMARK    2  A    between atoms: _3  and  _4
REMARK    3  A    between atoms: _3  and  _6
REMARK    4  A    between atoms: _6  and  _7
REMARK    5  A    between atoms: _10  and  _12
REMARK    6  A    between atoms: _12  and  _13
REMARK    7  A    between atoms: _15  and  _17
REMARK    8  A    between atoms: _17  and  _18
REMARK    9  A    between atoms: _17  and  _20
REMARK   10  A    between atoms: _20  and  _21
REMARK   11  A    between atoms: _26  and  _27
REMARK   12  A    between atoms: _29  and  _31
REMARK   13  A    between atoms: _31  and  _32
REMARK   14  A    between atoms: _31  and  _34
REMARK   15  A    between atoms: _34  and  _35
REMARK   16  A    between atoms: _40  and  _41
REMARK   17  A    between atoms: _43  and  _45
REMARK   18  A    between atoms: _45  and  _46
REMARK   19  A    between atoms: _45  and  _48
REMARK   20  A    between atoms: _48  and  _49
REMARK   21  A    between atoms: _55  and  _57
REMARK   22  A    between atoms: _57  and  _58
REMARK   23  A    between atoms: _57  and  _60
REMARK   24  A    between atoms: _60  and  _61
REMARK   25  A    between atoms: _65  and  _66
REMARK   26  A    between atoms: _71  and  _73
REMARK   27  A    between atoms: _73  and  _74
REMARK   28  A    between atoms: _73  and  _76
REMARK   29  A    between atoms: _76  and  _77
REMARK   30  A    between atoms: _80  and  _82
REMARK   31  A    between atoms: _82  and  _83
REMARK   32  A    between atoms: _82  and  _85
REMARK   33  A    between atoms: _85  and  _86
REMARK   34  A    between atoms: _91  and  _93
REMARK   35  A    between atoms: _93  and  _94
REMARK   36  A    between atoms: _93  and  _96
REMARK   37  A    between atoms: _96  and  _97
REMARK   38  A    between atoms: _97  and  _98
REMARK   39  A    between atoms: _103  and  _105
REMARK   40  A    between atoms: _105  and  _106
REMARK   41  A    between atoms: _105  and  _108
REMARK   42  A    between atoms: _108  and  _109
REMARK   43  A    between atoms: _114  and  _116
REMARK   44  A    between atoms: _116  and  _117
REMARK   45  A    between atoms: _116  and  _119
REMARK   46  A    between atoms: _119  and  _120
REMARK   47  A    between atoms: _122  and  _124
REMARK   48  A    between atoms: _124  and  _125
REMARK   49  A    between atoms: _124  and  _127
REMARK   50  A    between atoms: _127  and  _128
REMARK   51  A    between atoms: _134  and  _136
REMARK   52  A    between atoms: _136  and  _137
REMARK   53  A    between atoms: _136  and  _139
REMARK   54  A    between atoms: _139  and  _140
REMARK   55  A    between atoms: _143  and  _145
REMARK   56  A    between atoms: _145  and  _146
REMARK   57  A    between atoms: _145  and  _148
REMARK   58  A    between atoms: _148  and  _149
REMARK   59  A    between atoms: _151  and  _153
REMARK   60  A    between atoms: _153  and  _154
REMARK   61  A    between atoms: _153  and  _156
REMARK   62  A    between atoms: _156  and  _157
REMARK   63  A    between atoms: _160  and  _162
REMARK   64  A    between atoms: _162  and  _163
REMARK   65  A    between atoms: _165  and  _167
REMARK   66  A    between atoms: _167  and  _168
REMARK   67  A    between atoms: _170  and  _172
REMARK   68  A    between atoms: _172  and  _173
REMARK   69  A    between atoms: _172  and  _175
REMARK   70  A    between atoms: _175  and  _176
REMARK   71  A    between atoms: _186  and  _188
REMARK   72  A    between atoms: _188  and  _189
REMARK   73  A    between atoms: _188  and  _191
REMARK   74  A    between atoms: _191  and  _192
REMARK   75  A    between atoms: _197  and  _198
REMARK   76  A    between atoms: _200  and  _202
REMARK   77  A    between atoms: _202  and  _203
REMARK   78  A    between atoms: _202  and  _205
REMARK   79  A    between atoms: _205  and  _206
REMARK   80  A    between atoms: _211  and  _212
REMARK   81  A    between atoms: _214  and  _216
REMARK   82  A    between atoms: _216  and  _217
REMARK   83  A    between atoms: _216  and  _219
REMARK   84  A    between atoms: _219  and  _220
REMARK   85  A    between atoms: _222  and  _224
REMARK   86  A    between atoms: _224  and  _225
REMARK   87  A    between atoms: _224  and  _227
REMARK   88  A    between atoms: _227  and  _228
REMARK   89  A    between atoms: _233  and  _235
REMARK   90  A    between atoms: _235  and  _236
REMARK   91  A    between atoms: _235  and  _238
REMARK   92  A    between atoms: _241  and  _243
REMARK   93  A    between atoms: _243  and  _244
REMARK   94  A    between atoms: _243  and  _246
REMARK   95  A    between atoms: _246  and  _247
REMARK   96  A    between atoms: _250  and  _252
REMARK   97  A    between atoms: _252  and  _253
REMARK   98  A    between atoms: _252  and  _255
REMARK   99  A    between atoms: _255  and  _256
REMARK  100  A    between atoms: _259  and  _261
REMARK  101  A    between atoms: _261  and  _262
REMARK  102  A    between atoms: _261  and  _264
REMARK  103  A    between atoms: _264  and  _265
REMARK  104  A    between atoms: _270  and  _272
REMARK  105  A    between atoms: _272  and  _273
REMARK  106  A    between atoms: _272  and  _275
REMARK  107  A    between atoms: _275  and  _276
REMARK  108  A    between atoms: _286  and  _288
REMARK  109  A    between atoms: _288  and  _289
REMARK  110  A    between atoms: _288  and  _291
REMARK  111  A    between atoms: _291  and  _292
REMARK  112  A    between atoms: _292  and  _293
REMARK  113  A    between atoms: _296  and  _298
REMARK  114  A    between atoms: _298  and  _299
REMARK  115  A    between atoms: _298  and  _301
REMARK  116  A    between atoms: _301  and  _302
REMARK  117  A    between atoms: _307  and  _308
REMARK  118  A    between atoms: _310  and  _312
REMARK  119  A    between atoms: _312  and  _313
REMARK  120  A    between atoms: _312  and  _315
REMARK  121  A    between atoms: _315  and  _316
REMARK  122  A    between atoms: _319  and  _321
REMARK  123  A    between atoms: _321  and  _322
REMARK  124  A    between atoms: _325  and  _327
REMARK  125  A    between atoms: _327  and  _328
REMARK  126  A    between atoms: _330  and  _332
REMARK  127  A    between atoms: _332  and  _333
REMARK  128  A    between atoms: _332  and  _335
REMARK  129  A    between atoms: _335  and  _336
REMARK  130  A    between atoms: _341  and  _343
REMARK  131  A    between atoms: _343  and  _344
REMARK  132  A    between atoms: _343  and  _346
REMARK  133  A    between atoms: _346  and  _347
REMARK  134  A    between atoms: _350  and  _352
REMARK  135  A    between atoms: _352  and  _353
REMARK  136  A    between atoms: _352  and  _355
REMARK  137  A    between atoms: _355  and  _356
REMARK  138  A    between atoms: _356  and  _357
REMARK  139  A    between atoms: _359  and  _361
REMARK  140  A    between atoms: _361  and  _362
REMARK  141  A    between atoms: _361  and  _364
REMARK  142  A    between atoms: _364  and  _365
REMARK  143  A    between atoms: _368  and  _370
REMARK  144  A    between atoms: _370  and  _371
REMARK  145  A    between atoms: _370  and  _373
REMARK  146  A    between atoms: _373  and  _374
REMARK  147  A    between atoms: _379  and  _380
REMARK  148  A    between atoms: _382  and  _384
REMARK  149  A    between atoms: _384  and  _385
REMARK  150  A    between atoms: _384  and  _387
REMARK  151  A    between atoms: _387  and  _388
REMARK  152  A    between atoms: _391  and  _393
REMARK  153  A    between atoms: _393  and  _394
REMARK  154  A    between atoms: _393  and  _396
REMARK  155  A    between atoms: _396  and  _397
REMARK  156  A    between atoms: _407  and  _409
REMARK  157  A    between atoms: _409  and  _410
REMARK  158  A    between atoms: _409  and  _412
REMARK  159  A    between atoms: _412  and  _413
REMARK  160  A    between atoms: _413  and  _414
REMARK  161  A    between atoms: _419  and  _421
REMARK  162  A    between atoms: _421  and  _422
REMARK  163  A    between atoms: _424  and  _426
REMARK  164  A    between atoms: _426  and  _427
REMARK  165  A    between atoms: _426  and  _429
REMARK  166  A    between atoms: _433  and  _434
REMARK  167  A    between atoms: _439  and  _441
REMARK  168  A    between atoms: _441  and  _442
REMARK  169  A    between atoms: _441  and  _444
REMARK  170  A    between atoms: _444  and  _445
REMARK  171  A    between atoms: _451  and  _453
REMARK  172  A    between atoms: _453  and  _454
REMARK  173  A    between atoms: _453  and  _456
REMARK  174  A    between atoms: _456  and  _457
REMARK  175  A    between atoms: _462  and  _463
REMARK  176  A    between atoms: _465  and  _467
REMARK  177  A    between atoms: _467  and  _468
REMARK  178  A    between atoms: _470  and  _472
REMARK  179  A    between atoms: _472  and  _473
REMARK  180  A    between atoms: _472  and  _475
REMARK  181  A    between atoms: _475  and  _476
REMARK  182  A    between atoms: _476  and  _477
REMARK  183  A    between atoms: _477  and  _478
REMARK  184  A    between atoms: _487  and  _489
REMARK  185  A    between atoms: _489  and  _490
REMARK  186  A    between atoms: _489  and  _492
REMARK  187  A    between atoms: _492  and  _493
REMARK  188  A    between atoms: _496  and  _498
REMARK  189  A    between atoms: _498  and  _499
REMARK  190  A    between atoms: _498  and  _501
REMARK  191  A    between atoms: _501  and  _502
REMARK  192  A    between atoms: _502  and  _503
REMARK  193  A    between atoms: _506  and  _508
REMARK  194  A    between atoms: _508  and  _509
REMARK  195  A    between atoms: _508  and  _511
REMARK  196  A    between atoms: _511  and  _512
REMARK  197  A    between atoms: _512  and  _513
REMARK  198  A    between atoms: _513  and  _514
REMARK  199  A    between atoms: _523  and  _525
REMARK  200  A    between atoms: _525  and  _526
REMARK  201  A    between atoms: _525  and  _528
REMARK  202  A    between atoms: _528  and  _529
REMARK  203  A    between atoms: _532  and  _534
REMARK  204  A    between atoms: _534  and  _535
REMARK  205  A    between atoms: _534  and  _537
REMARK  206  A    between atoms: _537  and  _538
REMARK  207  A    between atoms: _538  and  _539
REMARK  208  A    between atoms: _539  and  _540
REMARK  209  A    between atoms: _540  and  _541
REMARK  210  A    between atoms: _545  and  _547
REMARK  211  A    between atoms: _547  and  _548
REMARK  212  A    between atoms: _547  and  _550
REMARK  213  A    between atoms: _550  and  _551
REMARK  214  A    between atoms: _554  and  _556
REMARK  215  A    between atoms: _556  and  _557
REMARK  216  A    between atoms: _556  and  _559
REMARK  217  A    between atoms: _559  and  _560
REMARK  218  A    between atoms: _560  and  _561
REMARK  219  A    between atoms: _561  and  _562
REMARK  220  A    between atoms: _571  and  _573
REMARK  221  A    between atoms: _573  and  _574
REMARK  222  A    between atoms: _573  and  _576
REMARK  223  A    between atoms: _576  and  _577
REMARK  224  A    between atoms: _580  and  _582
REMARK  225  A    between atoms: _582  and  _583
REMARK  226  A    between atoms: _586  and  _588
REMARK  227  A    between atoms: _588  and  _589
REMARK  228  A    between atoms: _588  and  _591
REMARK  229  A    between atoms: _591  and  _592
REMARK  230  A    between atoms: _594  and  _596
REMARK  231  A    between atoms: _596  and  _597
REMARK  232  A    between atoms: _596  and  _599
REMARK  233  A    between atoms: _599  and  _600
REMARK  234  A    between atoms: _600  and  _601
REMARK  235  A    between atoms: _603  and  _605
REMARK  236  A    between atoms: _605  and  _606
REMARK  237  A    between atoms: _605  and  _608
REMARK  238  A    between atoms: _608  and  _609
REMARK  239  A    between atoms: _615  and  _617
REMARK  240  A    between atoms: _617  and  _618
REMARK  241  A    between atoms: _617  and  _620
REMARK  242  A    between atoms: _620  and  _621
REMARK  243  A    between atoms: _631  and  _633
REMARK  244  A    between atoms: _633  and  _634
REMARK  245  A    between atoms: _633  and  _636
REMARK  246  A    between atoms: _636  and  _637
REMARK  247  A    between atoms: _642  and  _644
REMARK  248  A    between atoms: _644  and  _645
REMARK  249  A    between atoms: _644  and  _647
REMARK  250  A    between atoms: _647  and  _648
REMARK  251  A    between atoms: _648  and  _649
REMARK                            x       y       z     vdW  Elec       q    Type
REMARK                         _______ _______ _______ _____ _____    ______ ____
ROOT
ATOM      1  CG  TRP A   1      24.475  36.657  92.945  0.00  0.00    -0.002 A 
ATOM      2  CD2 TRP A   1      24.276  36.905  94.345  0.00  0.00    +0.013 A 
ATOM      3  CE3 TRP A   1      23.577  36.233  95.366  0.00  0.00    +0.001 A 
ATOM      4  CZ3 TRP A   1      23.591  36.772  96.660  0.00  0.00    +0.000 A 
ATOM      5  CH2 TRP A   1      24.290  37.965  96.943  0.00  0.00    +0.001 A 
ATOM      6  CZ2 TRP A   1      24.979  38.641  95.962  0.00  0.00    +0.017 A 
ATOM      7  CE2 TRP A   1      24.966  38.103  94.662  0.00  0.00    +0.056 A 
ATOM      8  NE1 TRP A   1      25.556  38.560  93.507  0.00  0.00    -0.352 N 
ATOM      9  HE1 TRP A   1      26.131  39.422  93.421  0.00  0.00    +0.166 HD
ATOM     10  CD1 TRP A   1      25.260  37.686  92.480  0.00  0.00    +0.068 A 
ENDROOT
BRANCH   1  11
ATOM     11  CB  TRP A   1      23.924  35.496  92.145  0.00  0.00    +0.053 C 
BRANCH  11  12
ATOM     12  CA  TRP A   1      24.849  34.279  92.058  0.00  0.00    +0.137 C 
BRANCH  12  13
ATOM     13  N   TRP A   1      25.184  33.820  93.392  0.00  0.00    -0.239 NA
ATOM     14  H   TRP A   1      24.965  34.427  94.207  0.00  0.00    +0.142 HD
ENDBRANCH  12  13
BRANCH  12  15
ATOM     15  C   TRP A   1      26.067  34.616  91.202  0.00  0.00    +0.224 C 
ATOM     16  O   TRP A   1      25.919  34.887  90.000  0.00  0.00    -0.287 OA
ENDBRANCH  12  15
ENDBRANCH  11  12
ENDBRANCH   1  11
TORSDOF 4
REMARK  Name = ../refined-set-2016/1ogg/1ogg_pocket.pdb
REMARK  251 active torsions:
REMARK  status: ('A' for Active; 'I' for Inactive)
REMARK    1  A    between atoms: _1  and  _3
REMARK    2  A    between atoms: _3  and  _4
REMARK    3  A    between atoms: _3  and  _6
REMARK    4  A    between atoms: _6  and  _7
REMARK    5  A    between atoms: _10  and  _12
REMARK    6  A    between atoms: _12  and  _13
REMARK    7  A    between atoms: _15  and  _17
REMARK    8  A    between atoms: _17  and  _18
REMARK    9  A    between atoms: _17  and  _20
REMARK   10  A    between atoms: _20  and  _21
REMARK   11  A    between atoms: _26  and  _27
REMARK   12  A    between atoms: _29  and  _31
REMARK   13  A    between atoms: _31  and  _32
REMARK   14  A    between atoms: _31  and  _34
REMARK   15  A    between atoms: _34  and  _35
REMARK   16  A    between atoms: _40  and  _41
REMARK   17  A    between atoms: _43  and  _45
REMARK   18  A    between atoms: _45  and  _46
REMARK   19  A    between atoms: _45  and  _48
REMARK   20  A    between atoms: _48  and  _49
REMARK   21  A    between atoms: _55  and  _57
REMARK   22  A    between atoms: _57  and  _58
REMARK   23  A    between atoms: _57  and  _60
REMARK   24  A    between atoms: _60  and  _61
REMARK   25  A    between atoms: _65  and  _66
REMARK   26  A    between atoms: _71  and  _73
REMARK   27  A    between atoms: _73  and  _74
REMARK   28  A    between atoms: _73  and  _76
REMARK   29  A    between atoms: _76  and  _77
REMARK   30  A    between atoms: _80  and  _82
REMARK   31  A    between atoms: _82  and  _83
REMARK   32  A    between atoms: _82  and  _85
REMARK   33  A    between atoms: _85  and  _86
REMARK   34  A    between atoms: _91  and  _93
REMARK   35  A    between atoms: _93  and  _94
REMARK   36  A    between atoms: _93  and  _96
REMARK   37  A    between atoms: _96  and  _97
REMARK   38  A    between atoms: _97  and  _98
REMARK   39  A    between atoms: _103  and  _105
REMARK   40  A    between atoms: _105  and  _106
REMARK   41  A    between atoms: _105  and  _108
REMARK   42  A    between atoms: _108  and  _109
REMARK   43  A    between atoms: _114  and  _116
REMARK   44  A    between atoms: _116  and  _117
REMARK   45  A    between atoms: _116  and  _119
REMARK   46  A    between atoms: _119  and  _120
REMARK   47  A    between atoms: _122  and  _124
REMARK   48  A    between atoms: _124  and  _125
REMARK   49  A    between atoms: _124  and  _127
REMARK   50  A    between atoms: _127  and  _128
REMARK   51  A    between atoms: _134  and  _136
REMARK   52  A    between atoms: _136  and  _137
REMARK   53  A    between atoms: _136  and  _139
REMARK   54  A    between atoms: _139  and  _140
REMARK   55  A    between atoms: _143  and  _145
REMARK   56  A    between atoms: _145  and  _146
REMARK   57  A    between atoms: _145  and  _148
REMARK   58  A    between atoms: _148  and  _149
REMARK   59  A    between atoms: _151  and  _153
REMARK   60  A    between atoms: _153  and  _154
REMARK   61  A    between atoms: _153  and  _156
REMARK   62  A    between atoms: _156  and  _157
REMARK   63  A    between atoms: _160  and  _162
REMARK   64  A    between atoms: _162  and  _163
REMARK   65  A    between atoms: _165  and  _167
REMARK   66  A    between atoms: _167  and  _168
REMARK   67  A    between atoms: _170  and  _172
REMARK   68  A    between atoms: _172  and  _173
REMARK   69  A    between atoms: _172  and  _175
REMARK   70  A    between atoms: _175  and  _176
REMARK   71  A    between atoms: _186  and  _188
REMARK   72  A    between atoms: _188  and  _189
REMARK   73  A    between atoms: _188  and  _191
REMARK   74  A    between atoms: _191  and  _192
REMARK   75  A    between atoms: _197  and  _198
REMARK   76  A    between atoms: _200  and  _202
REMARK   77  A    between atoms: _202  and  _203
REMARK   78  A    between atoms: _202  and  _205
REMARK   79  A    between atoms: _205  and  _206
REMARK   80  A    between atoms: _211  and  _212
REMARK   81  A    between atoms: _214  and  _216
REMARK   82  A    between atoms: _216  and  _217
REMARK   83  A    between atoms: _216  and  _219
REMARK   84  A    between atoms: _219  and  _220
REMARK   85  A    between atoms: _222  and  _224
REMARK   86  A    between atoms: _224  and  _225
REMARK   87  A    between atoms: _224  and  _227
REMARK   88  A    between atoms: _227  and  _228
REMARK   89  A    between atoms: _233  and  _235
REMARK   90  A    between atoms: _235  and  _236
REMARK   91  A    between atoms: _235  and  _238
REMARK   92  A    between atoms: _241  and  _243
REMARK   93  A    between atoms: _243  and  _244
REMARK   94  A    between atoms: _243  and  _246
REMARK   95  A    between atoms: _246  and  _247
REMARK   96  A    between atoms: _250  and  _252
REMARK   97  A    between atoms: _252  and  _253
REMARK   98  A    between atoms: _252  and  _255
REMARK   99  A    between atoms: _255  and  _256
REMARK  100  A    between atoms: _259  and  _261
REMARK  101  A    between atoms: _261  and  _262
REMARK  102  A    between atoms: _261  and  _264
REMARK  103  A    between atoms: _264  and  _265
REMARK  104  A    between atoms: _270  and  _272
REMARK  105  A    between atoms: _272  and  _273
REMARK  106  A    between atoms: _272  and  _275
REMARK  107  A    between atoms: _275  and  _276
REMARK  108  A    between atoms: _286  and  _288
REMARK  109  A    between atoms: _288  and  _289
REMARK  110  A    between atoms: _288  and  _291
REMARK  111  A    between atoms: _291  and  _292
REMARK  112  A    between atoms: _292  and  _293
REMARK  113  A    between atoms: _296  and  _298
REMARK  114  A    between atoms: _298  and  _299
REMARK  115  A    between atoms: _298  and  _301
REMARK  116  A    between atoms: _301  and  _302
REMARK  117  A    between atoms: _307  and  _308
REMARK  118  A    between atoms: _310  and  _312
REMARK  119  A    between atoms: _312  and  _313
REMARK  120  A    between atoms: _312  and  _315
REMARK  121  A    between atoms: _315  and  _316
REMARK  122  A    between atoms: _319  and  _321
REMARK  123  A    between atoms: _321  and  _322
REMARK  124  A    between atoms: _325  and  _327
REMARK  125  A    between atoms: _327  and  _328
REMARK  126  A    between atoms: _330  and  _332
REMARK  127  A    between atoms: _332  and  _333
REMARK  128  A    between atoms: _332  and  _335
REMARK  129  A    between atoms: _335  and  _336
REMARK  130  A    between atoms: _341  and  _343
REMARK  131  A    between atoms: _343  and  _344
REMARK  132  A    between atoms: _343  and  _346
REMARK  133  A    between atoms: _346  and  _347
REMARK  134  A    between atoms: _350  and  _352
REMARK  135  A    between atoms: _352  and  _353
REMARK  136  A    between atoms: _352  and  _355
REMARK  137  A    between atoms: _355  and  _356
REMARK  138  A    between atoms: _356  and  _357
REMARK  139  A    between atoms: _359  and  _361
REMARK  140  A    between atoms: _361  and  _362
REMARK  141  A    between atoms: _361  and  _364
REMARK  142  A    between atoms: _364  and  _365
REMARK  143  A    between atoms: _368  and  _370
REMARK  144  A    between atoms: _370  and  _371
REMARK  145  A    between atoms: _370  and  _373
REMARK  146  A    between atoms: _373  and  _374
REMARK  147  A    between atoms: _379  and  _380
REMARK  148  A    between atoms: _382  and  _384
REMARK  149  A    between atoms: _384  and  _385
REMARK  150  A    between atoms: _384  and  _387
REMARK  151  A    between atoms: _387  and  _388
REMARK  152  A    between atoms: _391  and  _393
REMARK  153  A    between atoms: _393  and  _394
REMARK  154  A    between atoms: _393  and  _396
REMARK  155  A    between atoms: _396  and  _397
REMARK  156  A    between atoms: _407  and  _409
REMARK  157  A    between atoms: _409  and  _410
REMARK  158  A    between atoms: _409  and  _412
REMARK  159  A    between atoms: _412  and  _413
REMARK  160  A    between atoms: _413  and  _414
REMARK  161  A    between atoms: _419  and  _421
REMARK  162  A    between atoms: _421  and  _422
REMARK  163  A    between atoms: _424  and  _426
REMARK  164  A    between atoms: _426  and  _427
REMARK  165  A    between atoms: _426  and  _429
REMARK  166  A    between atoms: _433  and  _434
REMARK  167  A    between atoms: _439  and  _441
REMARK  168  A    between atoms: _441  and  _442
REMARK  169  A    between atoms: _441  and  _444
REMARK  170  A    between atoms: _444  and  _445
REMARK  171  A    between atoms: _451  and  _453
REMARK  172  A    between atoms: _453  and  _454
REMARK  173  A    between atoms: _453  and  _456
REMARK  174  A    between atoms: _456  and  _457
REMARK  175  A    between atoms: _462  and  _463
REMARK  176  A    between atoms: _465  and  _467
REMARK  177  A    between atoms: _467  and  _468
REMARK  178  A    between atoms: _470  and  _472
REMARK  179  A    between atoms: _472  and  _473
REMARK  180  A    between atoms: _472  and  _475
REMARK  181  A    between atoms: _475  and  _476
REMARK  182  A    between atoms: _476  and  _477
REMARK  183  A    between atoms: _477  and  _478
REMARK  184  A    between atoms: _487  and  _489
REMARK  185  A    between atoms: _489  and  _490
REMARK  186  A    between atoms: _489  and  _492
REMARK  187  A    between atoms: _492  and  _493
REMARK  188  A    between atoms: _496  and  _498
REMARK  189  A    between atoms: _498  and  _499
REMARK  190  A    between atoms: _498  and  _501
REMARK  191  A    between atoms: _501  and  _502
REMARK  192  A    between atoms: _502  and  _503
REMARK  193  A    between atoms: _506  and  _508
REMARK  194  A    between atoms: _508  and  _509
REMARK  195  A    between atoms: _508  and  _511
REMARK  196  A    between atoms: _511  and  _512
REMARK  197  A    between atoms: _512  and  _513
REMARK  198  A    between atoms: _513  and  _514
REMARK  199  A    between atoms: _523  and  _525
REMARK  200  A    between atoms: _525  and  _526
REMARK  201  A    between atoms: _525  and  _528
REMARK  202  A    between atoms: _528  and  _529
REMARK  203  A    between atoms: _532  and  _534
REMARK  204  A    between atoms: _534  and  _535
REMARK  205  A    between atoms: _534  and  _537
REMARK  206  A    between atoms: _537  and  _538
REMARK  207  A    between atoms: _538  and  _539
REMARK  208  A    between atoms: _539  and  _540
REMARK  209  A    between atoms: _540  and  _541
REMARK  210  A    between atoms: _545  and  _547
REMARK  211  A    between atoms: _547  and  _548
REMARK  212  A    between atoms: _547  and  _550
REMARK  213  A    between atoms: _550  and  _551
REMARK  214  A    between atoms: _554  and  _556
REMARK  215  A    between atoms: _556  and  _557
REMARK  216  A    between atoms: _556  and  _559
REMARK  217  A    between atoms: _559  and  _560
REMARK  218  A    between atoms: _560  and  _561
REMARK  219  A    between atoms: _561  and  _562
REMARK  220  A    between atoms: _571  and  _573
REMARK  221  A    between atoms: _573  and  _574
REMARK  222  A    between atoms: _573  and  _576
REMARK  223  A    between atoms: _576  and  _577
REMARK  224  A    between atoms: _580  and  _582
REMARK  225  A    between atoms: _582  and  _583
REMARK  226  A    between atoms: _586  and  _588
REMARK  227  A    between atoms: _588  and  _589
REMARK  228  A    between atoms: _588  and  _591
REMARK  229  A    between atoms: _591  and  _592
REMARK  230  A    between atoms: _594  and  _596
REMARK  231  A    between atoms: _596  and  _597
REMARK  232  A    between atoms: _596  and  _599
REMARK  233  A    between atoms: _599  and  _600
REMARK  234  A    between atoms: _600  and  _601
REMARK  235  A    between atoms: _603  and  _605
REMARK  236  A    between atoms: _605  and  _606
REMARK  237  A    between atoms: _605  and  _608
REMARK  238  A    between atoms: _608  and  _609
REMARK  239  A    between atoms: _615  and  _617
REMARK  240  A    between atoms: _617  and  _618
REMARK  241  A    between atoms: _617  and  _620
REMARK  242  A    between atoms: _620  and  _621
REMARK  243  A    between atoms: _631  and  _633
REMARK  244  A    between atoms: _633  and  _634
REMARK  245  A    between atoms: _633  and  _636
REMARK  246  A    between atoms: _636  and  _637
REMARK  247  A    between atoms: _642  and  _644
REMARK  248  A    between atoms: _644  and  _645
REMARK  249  A    between atoms: _644  and  _647
REMARK  250  A    between atoms: _647  and  _648
REMARK  251  A    between atoms: _648  and  _649
REMARK                            x       y       z     vdW  Elec       q    Type
REMARK                         _______ _______ _______ _____ _____    ______ ____
ROOT
ATOM      1  CB  GLN A   1      29.610  39.456 100.826  0.00  0.00    +0.035 C 
ENDROOT
BRANCH   1   2
ATOM      2  CA  GLN A   1      30.819  40.081 100.136  0.00  0.00    +0.134 C 
BRANCH   2   3
ATOM      3  N   GLN A   1      32.022  39.315 100.447  0.00  0.00    -0.239 NA
ATOM      4  H   GLN A   1      32.048  38.706 101.290  0.00  0.00    +0.142 HD
ENDBRANCH   2   3
BRANCH   2   5
ATOM      5  C   GLN A   1      30.937  41.568 100.513  0.00  0.00    +0.224 C 
ATOM      6  O   GLN A   1      30.143  42.401 100.060  0.00  0.00    -0.287 OA
ENDBRANCH   2   5
ENDBRANCH   1   2
BRANCH   1   7
ATOM      7  CG  GLN A   1      29.512  39.794 102.282  0.00  0.00    +0.087 C 
BRANCH   7   8
ATOM      8  CD  GLN A   1      28.098  39.645 102.819  0.00  0.00    +0.219 C 
ATOM      9  NE2 GLN A   1      27.973  39.141 104.049  0.00  0.00    -0.329 N 
ATOM     10 HE21 GLN A   1      28.819  38.864 104.586  0.00  0.00    +0.145 HD
ATOM     11 HE22 GLN A   1      27.029  39.026 104.470  0.00  0.00    +0.145 HD
ATOM     12  OE1 GLN A   1      27.131  39.987 102.145  0.00  0.00    -0.275 OA
ENDBRANCH   7   8
ENDBRANCH   1   7
TORSDOF 5
REMARK  Name = ../refined-set-2016/1ogg/1ogg_pocket.pdb
REMARK  251 active torsions:
REMARK  status: ('A' for Active; 'I' for Inactive)
REMARK    1  A    between atoms: _1  and  _3
REMARK    2  A    between atoms: _3  and  _4
REMARK    3  A    between atoms: _3  and  _6
REMARK    4  A    between atoms: _6  and  _7
REMARK    5  A    between atoms: _10  and  _12
REMARK    6  A    between atoms: _12  and  _13
REMARK    7  A    between atoms: _15  and  _17
REMARK    8  A    between atoms: _17  and  _18
REMARK    9  A    between atoms: _17  and  _20
REMARK   10  A    between atoms: _20  and  _21
REMARK   11  A    between atoms: _26  and  _27
REMARK   12  A    between atoms: _29  and  _31
REMARK   13  A    between atoms: _31  and  _32
REMARK   14  A    between atoms: _31  and  _34
REMARK   15  A    between atoms: _34  and  _35
REMARK   16  A    between atoms: _40  and  _41
REMARK   17  A    between atoms: _43  and  _45
REMARK   18  A    between atoms: _45  and  _46
REMARK   19  A    between atoms: _45  and  _48
REMARK   20  A    between atoms: _48  and  _49
REMARK   21  A    between atoms: _55  and  _57
REMARK   22  A    between atoms: _57  and  _58
REMARK   23  A    between atoms: _57  and  _60
REMARK   24  A    between atoms: _60  and  _61
REMARK   25  A    between atoms: _65  and  _66
REMARK   26  A    between atoms: _71  and  _73
REMARK   27  A    between atoms: _73  and  _74
REMARK   28  A    between atoms: _73  and  _76
REMARK   29  A    between atoms: _76  and  _77
REMARK   30  A    between atoms: _80  and  _82
REMARK   31  A    between atoms: _82  and  _83
REMARK   32  A    between atoms: _82  and  _85
REMARK   33  A    between atoms: _85  and  _86
REMARK   34  A    between atoms: _91  and  _93
REMARK   35  A    between atoms: _93  and  _94
REMARK   36  A    between atoms: _93  and  _96
REMARK   37  A    between atoms: _96  and  _97
REMARK   38  A    between atoms: _97  and  _98
REMARK   39  A    between atoms: _103  and  _105
REMARK   40  A    between atoms: _105  and  _106
REMARK   41  A    between atoms: _105  and  _108
REMARK   42  A    between atoms: _108  and  _109
REMARK   43  A    between atoms: _114  and  _116
REMARK   44  A    between atoms: _116  and  _117
REMARK   45  A    between atoms: _116  and  _119
REMARK   46  A    between atoms: _119  and  _120
REMARK   47  A    between atoms: _122  and  _124
REMARK   48  A    between atoms: _124  and  _125
REMARK   49  A    between atoms: _124  and  _127
REMARK   50  A    between atoms: _127  and  _128
REMARK   51  A    between atoms: _134  and  _136
REMARK   52  A    between atoms: _136  and  _137
REMARK   53  A    between atoms: _136  and  _139
REMARK   54  A    between atoms: _139  and  _140
REMARK   55  A    between atoms: _143  and  _145
REMARK   56  A    between atoms: _145  and  _146
REMARK   57  A    between atoms: _145  and  _148
REMARK   58  A    between atoms: _148  and  _149
REMARK   59  A    between atoms: _151  and  _153
REMARK   60  A    between atoms: _153  and  _154
REMARK   61  A    between atoms: _153  and  _156
REMARK   62  A    between atoms: _156  and  _157
REMARK   63  A    between atoms: _160  and  _162
REMARK   64  A    between atoms: _162  and  _163
REMARK   65  A    between atoms: _165  and  _167
REMARK   66  A    between atoms: _167  and  _168
REMARK   67  A    between atoms: _170  and  _172
REMARK   68  A    between atoms: _172  and  _173
REMARK   69  A    between atoms: _172  and  _175
REMARK   70  A    between atoms: _175  and  _176
REMARK   71  A    between atoms: _186  and  _188
REMARK   72  A    between atoms: _188  and  _189
REMARK   73  A    between atoms: _188  and  _191
REMARK   74  A    between atoms: _191  and  _192
REMARK   75  A    between atoms: _197  and  _198
REMARK   76  A    between atoms: _200  and  _202
REMARK   77  A    between atoms: _202  and  _203
REMARK   78  A    between atoms: _202  and  _205
REMARK   79  A    between atoms: _205  and  _206
REMARK   80  A    between atoms: _211  and  _212
REMARK   81  A    between atoms: _214  and  _216
REMARK   82  A    between atoms: _216  and  _217
REMARK   83  A    between atoms: _216  and  _219
REMARK   84  A    between atoms: _219  and  _220
REMARK   85  A    between atoms: _222  and  _224
REMARK   86  A    between atoms: _224  and  _225
REMARK   87  A    between atoms: _224  and  _227
REMARK   88  A    between atoms: _227  and  _228
REMARK   89  A    between atoms: _233  and  _235
REMARK   90  A    between atoms: _235  and  _236
REMARK   91  A    between atoms: _235  and  _238
REMARK   92  A    between atoms: _241  and  _243
REMARK   93  A    between atoms: _243  and  _244
REMARK   94  A    between atoms: _243  and  _246
REMARK   95  A    between atoms: _246  and  _247
REMARK   96  A    between atoms: _250  and  _252
REMARK   97  A    between atoms: _252  and  _253
REMARK   98  A    between atoms: _252  and  _255
REMARK   99  A    between atoms: _255  and  _256
REMARK  100  A    between atoms: _259  and  _261
REMARK  101  A    between atoms: _261  and  _262
REMARK  102  A    between atoms: _261  and  _264
REMARK  103  A    between atoms: _264  and  _265
REMARK  104  A    between atoms: _270  and  _272
REMARK  105  A    between atoms: _272  and  _273
REMARK  106  A    between atoms: _272  and  _275
REMARK  107  A    between atoms: _275  and  _276
REMARK  108  A    between atoms: _286  and  _288
REMARK  109  A    between atoms: _288  and  _289
REMARK  110  A    between atoms: _288  and  _291
REMARK  111  A    between atoms: _291  and  _292
REMARK  112  A    between atoms: _292  and  _293
REMARK  113  A    between atoms: _296  and  _298
REMARK  114  A    between atoms: _298  and  _299
REMARK  115  A    between atoms: _298  and  _301
REMARK  116  A    between atoms: _301  and  _302
REMARK  117  A    between atoms: _307  and  _308
REMARK  118  A    between atoms: _310  and  _312
REMARK  119  A    between atoms: _312  and  _313
REMARK  120  A    between atoms: _312  and  _315
REMARK  121  A    between atoms: _315  and  _316
REMARK  122  A    between atoms: _319  and  _321
REMARK  123  A    between atoms: _321  and  _322
REMARK  124  A    between atoms: _325  and  _327
REMARK  125  A    between atoms: _327  and  _328
REMARK  126  A    between atoms: _330  and  _332
REMARK  127  A    between atoms: _332  and  _333
REMARK  128  A    between atoms: _332  and  _335
REMARK  129  A    between atoms: _335  and  _336
REMARK  130  A    between atoms: _341  and  _343
REMARK  131  A    between atoms: _343  and  _344
REMARK  132  A    between atoms: _343  and  _346
REMARK  133  A    between atoms: _346  and  _347
REMARK  134  A    between atoms: _350  and  _352
REMARK  135  A    between atoms: _352  and  _353
REMARK  136  A    between atoms: _352  and  _355
REMARK  137  A    between atoms: _355  and  _356
REMARK  138  A    between atoms: _356  and  _357
REMARK  139  A    between atoms: _359  and  _361
REMARK  140  A    between atoms: _361  and  _362
REMARK  141  A    between atoms: _361  and  _364
REMARK  142  A    between atoms: _364  and  _365
REMARK  143  A    between atoms: _368  and  _370
REMARK  144  A    between atoms: _370  and  _371
REMARK  145  A    between atoms: _370  and  _373
REMARK  146  A    between atoms: _373  and  _374
REMARK  147  A    between atoms: _379  and  _380
REMARK  148  A    between atoms: _382  and  _384
REMARK  149  A    between atoms: _384  and  _385
REMARK  150  A    between atoms: _384  and  _387
REMARK  151  A    between atoms: _387  and  _388
REMARK  152  A    between atoms: _391  and  _393
REMARK  153  A    between atoms: _393  and  _394
REMARK  154  A    between atoms: _393  and  _396
REMARK  155  A    between atoms: _396  and  _397
REMARK  156  A    between atoms: _407  and  _409
REMARK  157  A    between atoms: _409  and  _410
REMARK  158  A    between atoms: _409  and  _412
REMARK  159  A    between atoms: _412  and  _413
REMARK  160  A    between atoms: _413  and  _414
REMARK  161  A    between atoms: _419  and  _421
REMARK  162  A    between atoms: _421  and  _422
REMARK  163  A    between atoms: _424  and  _426
REMARK  164  A    between atoms: _426  and  _427
REMARK  165  A    between atoms: _426  and  _429
REMARK  166  A    between atoms: _433  and  _434
REMARK  167  A    between atoms: _439  and  _441
REMARK  168  A    between atoms: _441  and  _442
REMARK  169  A    between atoms: _441  and  _444
REMARK  170  A    between atoms: _444  and  _445
REMARK  171  A    between atoms: _451  and  _453
REMARK  172  A    between atoms: _453  and  _454
REMARK  173  A    between atoms: _453  and  _456
REMARK  174  A    between atoms: _456  and  _457
REMARK  175  A    between atoms: _462  and  _463
REMARK  176  A    between atoms: _465  and  _467
REMARK  177  A    between atoms: _467  and  _468
REMARK  178  A    between atoms: _470  and  _472
REMARK  179  A    between atoms: _472  and  _473
REMARK  180  A    between atoms: _472  and  _475
REMARK  181  A    between atoms: _475  and  _476
REMARK  182  A    between atoms: _476  and  _477
REMARK  183  A    between atoms: _477  and  _478
REMARK  184  A    between atoms: _487  and  _489
REMARK  185  A    between atoms: _489  and  _490
REMARK  186  A    between atoms: _489  and  _492
REMARK  187  A    between atoms: _492  and  _493
REMARK  188  A    between atoms: _496  and  _498
REMARK  189  A    between atoms: _498  and  _499
REMARK  190  A    between atoms: _498  and  _501
REMARK  191  A    between atoms: _501  and  _502
REMARK  192  A    between atoms: _502  and  _503
REMARK  193  A    between atoms: _506  and  _508
REMARK  194  A    between atoms: _508  and  _509
REMARK  195  A    between atoms: _508  and  _511
REMARK  196  A    between atoms: _511  and  _512
REMARK  197  A    between atoms: _512  and  _513
REMARK  198  A    between atoms: _513  and  _514
REMARK  199  A    between atoms: _523  and  _525
REMARK  200  A    between atoms: _525  and  _526
REMARK  201  A    between atoms: _525  and  _528
REMARK  202  A    between atoms: _528  and  _529
REMARK  203  A    between atoms: _532  and  _534
REMARK  204  A    between atoms: _534  and  _535
REMARK  205  A    between atoms: _534  and  _537
REMARK  206  A    between atoms: _537  and  _538
REMARK  207  A    between atoms: _538  and  _539
REMARK  208  A    between atoms: _539  and  _540
REMARK  209  A    between atoms: _540  and  _541
REMARK  210  A    between atoms: _545  and  _547
REMARK  211  A    between atoms: _547  and  _548
REMARK  212  A    between atoms: _547  and  _550
REMARK  213  A    between atoms: _550  and  _551
REMARK  214  A    between atoms: _554  and  _556
REMARK  215  A    between atoms: _556  and  _557
REMARK  216  A    between atoms: _556  and  _559
REMARK  217  A    between atoms: _559  and  _560
REMARK  218  A    between atoms: _560  and  _561
REMARK  219  A    between atoms: _561  and  _562
REMARK  220  A    between atoms: _571  and  _573
REMARK  221  A    between atoms: _573  and  _574
REMARK  222  A    between atoms: _573  and  _576
REMARK  223  A    between atoms: _576  and  _577
REMARK  224  A    between atoms: _580  and  _582
REMARK  225  A    between atoms: _582  and  _583
REMARK  226  A    between atoms: _586  and  _588
REMARK  227  A    between atoms: _588  and  _589
REMARK  228  A    between atoms: _588  and  _591
REMARK  229  A    between atoms: _591  and  _592
REMARK  230  A    between atoms: _594  and  _596
REMARK  231  A    between atoms: _596  and  _597
REMARK  232  A    between atoms: _596  and  _599
REMARK  233  A    between atoms: _599  and  _600
REMARK  234  A    between atoms: _600  and  _601
REMARK  235  A    between atoms: _603  and  _605
REMARK  236  A    between atoms: _605  and  _606
REMARK  237  A    between atoms: _605  and  _608
REMARK  238  A    between atoms: _608  and  _609
REMARK  239  A    between atoms: _615  and  _617
REMARK  240  A    between atoms: _617  and  _618
REMARK  241  A    between atoms: _617  and  _620
REMARK  242  A    between atoms: _620  and  _621
REMARK  243  A    between atoms: _631  and  _633
REMARK  244  A    between atoms: _633  and  _634
REMARK  245  A    between atoms: _633  and  _636
REMARK  246  A    between atoms: _636  and  _637
REMARK  247  A    between atoms: _642  and  _644
REMARK  248  A    between atoms: _644  and  _645
REMARK  249  A    between atoms: _644  and  _647
REMARK  250  A    between atoms: _647  and  _648
REMARK  251  A    between atoms: _648  and  _649
REMARK                            x       y       z     vdW  Elec       q    Type
REMARK                         _______ _______ _______ _____ _____    ______ ____
ROOT
ATOM      1  C   PHE A   4      25.467  39.887 110.230  0.00  0.00    +0.241 C 
ATOM      2  O   PHE A   4      25.130  39.114 111.119  0.00  0.00    -0.273 OA
ATOM      3  N   TYR A   5      25.687  39.504 108.972  0.00  0.00    -0.297 N 
ATOM      4  H   TYR A   5      26.035  40.208 108.290  0.00  0.00    +0.150 HD
ENDROOT
BRANCH   3   5
ATOM      5  CA  TYR A   5      25.457  38.126 108.509  0.00  0.00    +0.153 C 
BRANCH   5   6
ATOM      6  C   TYR A   5      26.504  37.696 107.484  0.00  0.00    +0.241 C 
ATOM      7  N   GLY A   6      26.647  36.384 107.275  0.00  0.00    -0.295 N 
ATOM      8  H   GLY A   6      26.072  35.706 107.815  0.00  0.00    +0.150 HD
ATOM      9  O   TYR A   5      27.161  38.533 106.868  0.00  0.00    -0.273 OA
BRANCH   7  10
ATOM     10  CA  GLY A   6      27.608  35.903 106.292  0.00  0.00    +0.176 C 
BRANCH  10  11
ATOM     11  C   GLY A   6      26.927  35.193 105.134  0.00  0.00    +0.243 C 
ATOM     12  O   GLY A   6      25.759  34.803 105.237  0.00  0.00    -0.273 OA
ATOM     13  N   ARG A   7      27.632  35.054 104.018  0.00  0.00    -0.298 N 
ATOM     14  H   ARG A   7      28.584  35.469 103.962  0.00  0.00    +0.150 HD
BRANCH  13  15
ATOM     15  CA  ARG A   7      27.101  34.333 102.871  0.00  0.00    +0.137 C 
BRANCH  15  16
ATOM     16  C   ARG A   7      27.977  33.098 102.704  0.00  0.00    +0.227 C 
ATOM     17  O   ARG A   7      29.204  33.180 102.792  0.00  0.00    -0.286 OA
ENDBRANCH  15  16
BRANCH  15  18
ATOM     18  CB  ARG A   7      27.091  35.203 101.612  0.00  0.00    +0.031 C 
BRANCH  18  19
ATOM     19  CG  ARG A   7      25.945  36.242 101.658  0.00  0.00    +0.045 C 
BRANCH  19  20
ATOM     20  CD  ARG A   7      25.742  37.004 100.346  0.00  0.00    +0.174 C 
BRANCH  20  21
ATOM     21  NE  ARG A   7      24.604  37.919 100.455  0.00  0.00    -0.265 N 
ATOM     22  CZ  ARG A   7      23.330  37.527 100.511  0.00  0.00    +0.342 C 
ATOM     23  NH2 ARG A   7      22.357  38.426 100.641  0.00  0.00    -0.292 N 
ATOM     24 HH21 ARG A   7      22.589  39.438 100.699  0.00  0.00    +0.255 HD
ATOM     25 HH22 ARG A   7      21.365  38.116 100.684  0.00  0.00    +0.255 HD
ATOM     26  NH1 ARG A   7      23.020  36.236 100.458  0.00  0.00    -0.292 N 
ATOM     27 HH11 ARG A   7      22.025  35.938 100.502  0.00  0.00    +0.255 HD
ATOM     28 HH12 ARG A   7      23.773  35.524 100.372  0.00  0.00    +0.255 HD
ATOM     29  HE  ARG A   7      24.801  38.939 100.491  0.00  0.00    +0.259 HD
ENDBRANCH  20  21
ENDBRANCH  19  20
ENDBRANCH  18  19
ENDBRANCH  15  18
ENDBRANCH  13  15
ENDBRANCH  10  11
ENDBRANCH   7  10
ENDBRANCH   5   6
BRANCH   5  30
ATOM     30  CB  TYR A   5      24.060  38.020 107.865  0.00  0.00    +0.055 C 
BRANCH  30  31
ATOM     31  CG  TYR A   5      23.881  38.920 106.633  0.00  0.00    -0.020 A 
ATOM     32  CD2 TYR A   5      23.459  40.254 106.759  0.00  0.00    -0.001 A 
ATOM     33  CE2 TYR A   5      23.375  41.104 105.636  0.00  0.00    +0.036 A 
ATOM     34  CZ  TYR A   5      23.717  40.618 104.378  0.00  0.00    +0.134 A 
ATOM     35  CE1 TYR A   5      24.128  39.290 104.225  0.00  0.00    +0.036 A 
ATOM     36  CD1 TYR A   5      24.205  38.454 105.356  0.00  0.00    -0.001 A 
BRANCH  34  37
ATOM     37  OH  TYR A   5      23.685  41.447 103.270  0.00  0.00    -0.506 OA
ATOM     38  HH  TYR A   5      23.064  41.072 102.597  0.00  0.00    +0.292 HD
ENDBRANCH  34  37
ENDBRANCH  30  31
ENDBRANCH   5  30
ENDBRANCH   3   5
BRANCH   1  39
ATOM     39  CA  PHE A   4      25.712  41.363 110.529  0.00  0.00    +0.153 C 
BRANCH  39  41
ATOM     40  C   PRO A   3      26.689  42.516 108.625  0.00  0.00    +0.241 C 
ATOM     41  N   PHE A   4      25.602  42.102 109.278  0.00  0.00    -0.297 N 
ATOM     42  H   PHE A   4      24.661  42.310 108.888  0.00  0.00    +0.150 HD
ATOM     43  O   PRO A   3      27.838  42.346 109.071  0.00  0.00    -0.273 OA
BRANCH  40  47
ATOM     44  C   VAL A   2      27.051  45.592 107.371  0.00  0.00    +0.244 C 
ATOM     45  O   VAL A   2      25.969  45.863 107.898  0.00  0.00    -0.273 OA
ATOM     46  N   PRO A   3      27.380  44.333 107.036  0.00  0.00    -0.272 N 
ATOM     47  CA  PRO A   3      26.448  43.228 107.286  0.00  0.00    +0.152 C 
ATOM     48  CB  PRO A   3      26.703  42.319 106.076  0.00  0.00    +0.031 C 
ATOM     49  CG  PRO A   3      28.227  42.367 105.965  0.00  0.00    +0.024 C 
ATOM     50  CD  PRO A   3      28.562  43.862 106.277  0.00  0.00    +0.094 C 
BRANCH  44  51
ATOM     51  CA  VAL A   2      28.073  46.698 107.078  0.00  0.00    +0.149 C 
BRANCH  51  53
ATOM     52  C   GLY A   1      27.500  48.675 105.770  0.00  0.00    +0.240 C 
ATOM     53  N   VAL A   2      27.281  47.898 106.819  0.00  0.00    -0.297 N 
ATOM     54  H   VAL A   2      26.520  48.150 107.481  0.00  0.00    +0.150 HD
ATOM     55  O   GLY A   1      28.449  48.513 105.016  0.00  0.00    -0.274 OA
BRANCH  52  56
ATOM     56  CA  GLY A   1      26.530  49.844 105.557  0.00  0.00    +0.169 C 
BRANCH  56  57
ATOM     57  N   GLY A   1      27.238  50.963 104.982  0.00  0.00    -0.236 NA
ATOM     58  H   GLY A   1      27.287  51.085 103.950  0.00  0.00    +0.142 HD
ENDBRANCH  56  57
ENDBRANCH  52  56
ENDBRANCH  51  53
BRANCH  51  59
ATOM     59  CB  VAL A   2      29.004  46.860 108.299  0.00  0.00    +0.027 C 
ATOM     60  CG2 VAL A   2      28.167  47.250 109.562  0.00  0.00    +0.002 C 
ATOM     61  CG1 VAL A   2      30.061  47.921 108.008  0.00  0.00    +0.002 C 
ENDBRANCH  51  59
ENDBRANCH  44  51
ENDBRANCH  40  47
ENDBRANCH  39  41
BRANCH  39  62
ATOM     62  CB  PHE A   4      24.699  41.901 111.566  0.00  0.00    +0.055 C 
BRANCH  62  63
ATOM     63  CG  PHE A   4      25.232  43.055 112.425  0.00  0.00    -0.020 A 
ATOM     64  CD2 PHE A   4      24.705  43.295 113.705  0.00  0.00    -0.004 A 
ATOM     65  CE2 PHE A   4      25.121  44.400 114.470  0.00  0.00    -0.000 A 
ATOM     66  CZ  PHE A   4      26.077  45.283 113.960  0.00  0.00    -0.000 A 
ATOM     67  CE1 PHE A   4      26.618  45.058 112.686  0.00  0.00    -0.000 A 
ATOM     68  CD1 PHE A   4      26.189  43.936 111.929  0.00  0.00    -0.004 A 
ENDBRANCH  62  63
ENDBRANCH  39  62
ENDBRANCH   1  39
TORSDOF 23
REMARK  Name = ../refined-set-2016/1ogg/1ogg_pocket.pdb
REMARK  251 active torsions:
REMARK  status: ('A' for Active; 'I' for Inactive)
REMARK    1  A    between atoms: _1  and  _3
REMARK    2  A    between atoms: _3  and  _4
REMARK    3  A    between atoms: _3  and  _6
REMARK    4  A    between atoms: _6  and  _7
REMARK    5  A    between atoms: _10  and  _12
REMARK    6  A    between atoms: _12  and  _13
REMARK    7  A    between atoms: _15  and  _17
REMARK    8  A    between atoms: _17  and  _18
REMARK    9  A    between atoms: _17  and  _20
REMARK   10  A    between atoms: _20  and  _21
REMARK   11  A    between atoms: _26  and  _27
REMARK   12  A    between atoms: _29  and  _31
REMARK   13  A    between atoms: _31  and  _32
REMARK   14  A    between atoms: _31  and  _34
REMARK   15  A    between atoms: _34  and  _35
REMARK   16  A    between atoms: _40  and  _41
REMARK   17  A    between atoms: _43  and  _45
REMARK   18  A    between atoms: _45  and  _46
REMARK   19  A    between atoms: _45  and  _48
REMARK   20  A    between atoms: _48  and  _49
REMARK   21  A    between atoms: _55  and  _57
REMARK   22  A    between atoms: _57  and  _58
REMARK   23  A    between atoms: _57  and  _60
REMARK   24  A    between atoms: _60  and  _61
REMARK   25  A    between atoms: _65  and  _66
REMARK   26  A    between atoms: _71  and  _73
REMARK   27  A    between atoms: _73  and  _74
REMARK   28  A    between atoms: _73  and  _76
REMARK   29  A    between atoms: _76  and  _77
REMARK   30  A    between atoms: _80  and  _82
REMARK   31  A    between atoms: _82  and  _83
REMARK   32  A    between atoms: _82  and  _85
REMARK   33  A    between atoms: _85  and  _86
REMARK   34  A    between atoms: _91  and  _93
REMARK   35  A    between atoms: _93  and  _94
REMARK   36  A    between atoms: _93  and  _96
REMARK   37  A    between atoms: _96  and  _97
REMARK   38  A    between atoms: _97  and  _98
REMARK   39  A    between atoms: _103  and  _105
REMARK   40  A    between atoms: _105  and  _106
REMARK   41  A    between atoms: _105  and  _108
REMARK   42  A    between atoms: _108  and  _109
REMARK   43  A    between atoms: _114  and  _116
REMARK   44  A    between atoms: _116  and  _117
REMARK   45  A    between atoms: _116  and  _119
REMARK   46  A    between atoms: _119  and  _120
REMARK   47  A    between atoms: _122  and  _124
REMARK   48  A    between atoms: _124  and  _125
REMARK   49  A    between atoms: _124  and  _127
REMARK   50  A    between atoms: _127  and  _128
REMARK   51  A    between atoms: _134  and  _136
REMARK   52  A    between atoms: _136  and  _137
REMARK   53  A    between atoms: _136  and  _139
REMARK   54  A    between atoms: _139  and  _140
REMARK   55  A    between atoms: _143  and  _145
REMARK   56  A    between atoms: _145  and  _146
REMARK   57  A    between atoms: _145  and  _148
REMARK   58  A    between atoms: _148  and  _149
REMARK   59  A    between atoms: _151  and  _153
REMARK   60  A    between atoms: _153  and  _154
REMARK   61  A    between atoms: _153  and  _156
REMARK   62  A    between atoms: _156  and  _157
REMARK   63  A    between atoms: _160  and  _162
REMARK   64  A    between atoms: _162  and  _163
REMARK   65  A    between atoms: _165  and  _167
REMARK   66  A    between atoms: _167  and  _168
REMARK   67  A    between atoms: _170  and  _172
REMARK   68  A    between atoms: _172  and  _173
REMARK   69  A    between atoms: _172  and  _175
REMARK   70  A    between atoms: _175  and  _176
REMARK   71  A    between atoms: _186  and  _188
REMARK   72  A    between atoms: _188  and  _189
REMARK   73  A    between atoms: _188  and  _191
REMARK   74  A    between atoms: _191  and  _192
REMARK   75  A    between atoms: _197  and  _198
REMARK   76  A    between atoms: _200  and  _202
REMARK   77  A    between atoms: _202  and  _203
REMARK   78  A    between atoms: _202  and  _205
REMARK   79  A    between atoms: _205  and  _206
REMARK   80  A    between atoms: _211  and  _212
REMARK   81  A    between atoms: _214  and  _216
REMARK   82  A    between atoms: _216  and  _217
REMARK   83  A    between atoms: _216  and  _219
REMARK   84  A    between atoms: _219  and  _220
REMARK   85  A    between atoms: _222  and  _224
REMARK   86  A    between atoms: _224  and  _225
REMARK   87  A    between atoms: _224  and  _227
REMARK   88  A    between atoms: _227  and  _228
REMARK   89  A    between atoms: _233  and  _235
REMARK   90  A    between atoms: _235  and  _236
REMARK   91  A    between atoms: _235  and  _238
REMARK   92  A    between atoms: _241  and  _243
REMARK   93  A    between atoms: _243  and  _244
REMARK   94  A    between atoms: _243  and  _246
REMARK   95  A    between atoms: _246  and  _247
REMARK   96  A    between atoms: _250  and  _252
REMARK   97  A    between atoms: _252  and  _253
REMARK   98  A    between atoms: _252  and  _255
REMARK   99  A    between atoms: _255  and  _256
REMARK  100  A    between atoms: _259  and  _261
REMARK  101  A    between atoms: _261  and  _262
REMARK  102  A    between atoms: _261  and  _264
REMARK  103  A    between atoms: _264  and  _265
REMARK  104  A    between atoms: _270  and  _272
REMARK  105  A    between atoms: _272  and  _273
REMARK  106  A    between atoms: _272  and  _275
REMARK  107  A    between atoms: _275  and  _276
REMARK  108  A    between atoms: _286  and  _288
REMARK  109  A    between atoms: _288  and  _289
REMARK  110  A    between atoms: _288  and  _291
REMARK  111  A    between atoms: _291  and  _292
REMARK  112  A    between atoms: _292  and  _293
REMARK  113  A    between atoms: _296  and  _298
REMARK  114  A    between atoms: _298  and  _299
REMARK  115  A    between atoms: _298  and  _301
REMARK  116  A    between atoms: _301  and  _302
REMARK  117  A    between atoms: _307  and  _308
REMARK  118  A    between atoms: _310  and  _312
REMARK  119  A    between atoms: _312  and  _313
REMARK  120  A    between atoms: _312  and  _315
REMARK  121  A    between atoms: _315  and  _316
REMARK  122  A    between atoms: _319  and  _321
REMARK  123  A    between atoms: _321  and  _322
REMARK  124  A    between atoms: _325  and  _327
REMARK  125  A    between atoms: _327  and  _328
REMARK  126  A    between atoms: _330  and  _332
REMARK  127  A    between atoms: _332  and  _333
REMARK  128  A    between atoms: _332  and  _335
REMARK  129  A    between atoms: _335  and  _336
REMARK  130  A    between atoms: _341  and  _343
REMARK  131  A    between atoms: _343  and  _344
REMARK  132  A    between atoms: _343  and  _346
REMARK  133  A    between atoms: _346  and  _347
REMARK  134  A    between atoms: _350  and  _352
REMARK  135  A    between atoms: _352  and  _353
REMARK  136  A    between atoms: _352  and  _355
REMARK  137  A    between atoms: _355  and  _356
REMARK  138  A    between atoms: _356  and  _357
REMARK  139  A    between atoms: _359  and  _361
REMARK  140  A    between atoms: _361  and  _362
REMARK  141  A    between atoms: _361  and  _364
REMARK  142  A    between atoms: _364  and  _365
REMARK  143  A    between atoms: _368  and  _370
REMARK  144  A    between atoms: _370  and  _371
REMARK  145  A    between atoms: _370  and  _373
REMARK  146  A    between atoms: _373  and  _374
REMARK  147  A    between atoms: _379  and  _380
REMARK  148  A    between atoms: _382  and  _384
REMARK  149  A    between atoms: _384  and  _385
REMARK  150  A    between atoms: _384  and  _387
REMARK  151  A    between atoms: _387  and  _388
REMARK  152  A    between atoms: _391  and  _393
REMARK  153  A    between atoms: _393  and  _394
REMARK  154  A    between atoms: _393  and  _396
REMARK  155  A    between atoms: _396  and  _397
REMARK  156  A    between atoms: _407  and  _409
REMARK  157  A    between atoms: _409  and  _410
REMARK  158  A    between atoms: _409  and  _412
REMARK  159  A    between atoms: _412  and  _413
REMARK  160  A    between atoms: _413  and  _414
REMARK  161  A    between atoms: _419  and  _421
REMARK  162  A    between atoms: _421  and  _422
REMARK  163  A    between atoms: _424  and  _426
REMARK  164  A    between atoms: _426  and  _427
REMARK  165  A    between atoms: _426  and  _429
REMARK  166  A    between atoms: _433  and  _434
REMARK  167  A    between atoms: _439  and  _441
REMARK  168  A    between atoms: _441  and  _442
REMARK  169  A    between atoms: _441  and  _444
REMARK  170  A    between atoms: _444  and  _445
REMARK  171  A    between atoms: _451  and  _453
REMARK  172  A    between atoms: _453  and  _454
REMARK  173  A    between atoms: _453  and  _456
REMARK  174  A    between atoms: _456  and  _457
REMARK  175  A    between atoms: _462  and  _463
REMARK  176  A    between atoms: _465  and  _467
REMARK  177  A    between atoms: _467  and  _468
REMARK  178  A    between atoms: _470  and  _472
REMARK  179  A    between atoms: _472  and  _473
REMARK  180  A    between atoms: _472  and  _475
REMARK  181  A    between atoms: _475  and  _476
REMARK  182  A    between atoms: _476  and  _477
REMARK  183  A    between atoms: _477  and  _478
REMARK  184  A    between atoms: _487  and  _489
REMARK  185  A    between atoms: _489  and  _490
REMARK  186  A    between atoms: _489  and  _492
REMARK  187  A    between atoms: _492  and  _493
REMARK  188  A    between atoms: _496  and  _498
REMARK  189  A    between atoms: _498  and  _499
REMARK  190  A    between atoms: _498  and  _501
REMARK  191  A    between atoms: _501  and  _502
REMARK  192  A    between atoms: _502  and  _503
REMARK  193  A    between atoms: _506  and  _508
REMARK  194  A    between atoms: _508  and  _509
REMARK  195  A    between atoms: _508  and  _511
REMARK  196  A    between atoms: _511  and  _512
REMARK  197  A    between atoms: _512  and  _513
REMARK  198  A    between atoms: _513  and  _514
REMARK  199  A    between atoms: _523  and  _525
REMARK  200  A    between atoms: _525  and  _526
REMARK  201  A    between atoms: _525  and  _528
REMARK  202  A    between atoms: _528  and  _529
REMARK  203  A    between atoms: _532  and  _534
REMARK  204  A    between atoms: _534  and  _535
REMARK  205  A    between atoms: _534  and  _537
REMARK  206  A    between atoms: _537  and  _538
REMARK  207  A    between atoms: _538  and  _539
REMARK  208  A    between atoms: _539  and  _540
REMARK  209  A    between atoms: _540  and  _541
REMARK  210  A    between atoms: _545  and  _547
REMARK  211  A    between atoms: _547  and  _548
REMARK  212  A    between atoms: _547  and  _550
REMARK  213  A    between atoms: _550  and  _551
REMARK  214  A    between atoms: _554  and  _556
REMARK  215  A    between atoms: _556  and  _557
REMARK  216  A    between atoms: _556  and  _559
REMARK  217  A    between atoms: _559  and  _560
REMARK  218  A    between atoms: _560  and  _561
REMARK  219  A    between atoms: _561  and  _562
REMARK  220  A    between atoms: _571  and  _573
REMARK  221  A    between atoms: _573  and  _574
REMARK  222  A    between atoms: _573  and  _576
REMARK  223  A    between atoms: _576  and  _577
REMARK  224  A    between atoms: _580  and  _582
REMARK  225  A    between atoms: _582  and  _583
REMARK  226  A    between atoms: _586  and  _588
REMARK  227  A    between atoms: _588  and  _589
REMARK  228  A    between atoms: _588  and  _591
REMARK  229  A    between atoms: _591  and  _592
REMARK  230  A    between atoms: _594  and  _596
REMARK  231  A    between atoms: _596  and  _597
REMARK  232  A    between atoms: _596  and  _599
REMARK  233  A    between atoms: _599  and  _600
REMARK  234  A    between atoms: _600  and  _601
REMARK  235  A    between atoms: _603  and  _605
REMARK  236  A    between atoms: _605  and  _606
REMARK  237  A    between atoms: _605  and  _608
REMARK  238  A    between atoms: _608  and  _609
REMARK  239  A    between atoms: _615  and  _617
REMARK  240  A    between atoms: _617  and  _618
REMARK  241  A    between atoms: _617  and  _620
REMARK  242  A    between atoms: _620  and  _621
REMARK  243  A    between atoms: _631  and  _633
REMARK  244  A    between atoms: _633  and  _634
REMARK  245  A    between atoms: _633  and  _636
REMARK  246  A    between atoms: _636  and  _637
REMARK  247  A    between atoms: _642  and  _644
REMARK  248  A    between atoms: _644  and  _645
REMARK  249  A    between atoms: _644  and  _647
REMARK  250  A    between atoms: _647  and  _648
REMARK  251  A    between atoms: _648  and  _649
REMARK                            x       y       z     vdW  Elec       q    Type
REMARK                         _______ _______ _______ _____ _____    ______ ____
ROOT
ATOM      1  CA  ASP A   1      15.522  32.099  95.654  0.00  0.00    +0.144 C 
ENDROOT
BRANCH   1   2
ATOM      2  N   ASP A   1      16.249  31.614  94.480  0.00  0.00    -0.239 NA
ATOM      3  H   ASP A   1      15.920  31.919  93.542  0.00  0.00    +0.142 HD
ENDBRANCH   1   2
BRANCH   1   4
ATOM      4  C   ASP A   1      14.056  31.791  95.335  0.00  0.00    +0.225 C 
ATOM      5  O   ASP A   1      13.542  32.212  94.295  0.00  0.00    -0.287 OA
ENDBRANCH   1   4
BRANCH   1   6
ATOM      6  CB  ASP A   1      15.705  33.614  95.839  0.00  0.00    +0.139 C 
BRANCH   6   7
ATOM      7  CG  ASP A   1      16.989  33.965  96.562  0.00  0.00    +0.367 C 
ATOM      8  OD2 ASP A   1      17.102  35.113  97.042  0.00  0.00    -0.246 OA
ATOM      9  OD1 ASP A   1      17.885  33.100  96.646  0.00  0.00    -0.246 OA
ENDBRANCH   6   7
ENDBRANCH   1   6
TORSDOF 4
REMARK  Name = ../refined-set-2016/1ogg/1ogg_pocket.pdb
REMARK  251 active torsions:
REMARK  status: ('A' for Active; 'I' for Inactive)
REMARK    1  A    between atoms: _1  and  _3
REMARK    2  A    between atoms: _3  and  _4
REMARK    3  A    between atoms: _3  and  _6
REMARK    4  A    between atoms: _6  and  _7
REMARK    5  A    between atoms: _10  and  _12
REMARK    6  A    between atoms: _12  and  _13
REMARK    7  A    between atoms: _15  and  _17
REMARK    8  A    between atoms: _17  and  _18
REMARK    9  A    between atoms: _17  and  _20
REMARK   10  A    between atoms: _20  and  _21
REMARK   11  A    between atoms: _26  and  _27
REMARK   12  A    between atoms: _29  and  _31
REMARK   13  A    between atoms: _31  and  _32
REMARK   14  A    between atoms: _31  and  _34
REMARK   15  A    between atoms: _34  and  _35
REMARK   16  A    between atoms: _40  and  _41
REMARK   17  A    between atoms: _43  and  _45
REMARK   18  A    between atoms: _45  and  _46
REMARK   19  A    between atoms: _45  and  _48
REMARK   20  A    between atoms: _48  and  _49
REMARK   21  A    between atoms: _55  and  _57
REMARK   22  A    between atoms: _57  and  _58
REMARK   23  A    between atoms: _57  and  _60
REMARK   24  A    between atoms: _60  and  _61
REMARK   25  A    between atoms: _65  and  _66
REMARK   26  A    between atoms: _71  and  _73
REMARK   27  A    between atoms: _73  and  _74
REMARK   28  A    between atoms: _73  and  _76
REMARK   29  A    between atoms: _76  and  _77
REMARK   30  A    between atoms: _80  and  _82
REMARK   31  A    between atoms: _82  and  _83
REMARK   32  A    between atoms: _82  and  _85
REMARK   33  A    between atoms: _85  and  _86
REMARK   34  A    between atoms: _91  and  _93
REMARK   35  A    between atoms: _93  and  _94
REMARK   36  A    between atoms: _93  and  _96
REMARK   37  A    between atoms: _96  and  _97
REMARK   38  A    between atoms: _97  and  _98
REMARK   39  A    between atoms: _103  and  _105
REMARK   40  A    between atoms: _105  and  _106
REMARK   41  A    between atoms: _105  and  _108
REMARK   42  A    between atoms: _108  and  _109
REMARK   43  A    between atoms: _114  and  _116
REMARK   44  A    between atoms: _116  and  _117
REMARK   45  A    between atoms: _116  and  _119
REMARK   46  A    between atoms: _119  and  _120
REMARK   47  A    between atoms: _122  and  _124
REMARK   48  A    between atoms: _124  and  _125
REMARK   49  A    between atoms: _124  and  _127
REMARK   50  A    between atoms: _127  and  _128
REMARK   51  A    between atoms: _134  and  _136
REMARK   52  A    between atoms: _136  and  _137
REMARK   53  A    between atoms: _136  and  _139
REMARK   54  A    between atoms: _139  and  _140
REMARK   55  A    between atoms: _143  and  _145
REMARK   56  A    between atoms: _145  and  _146
REMARK   57  A    between atoms: _145  and  _148
REMARK   58  A    between atoms: _148  and  _149
REMARK   59  A    between atoms: _151  and  _153
REMARK   60  A    between atoms: _153  and  _154
REMARK   61  A    between atoms: _153  and  _156
REMARK   62  A    between atoms: _156  and  _157
REMARK   63  A    between atoms: _160  and  _162
REMARK   64  A    between atoms: _162  and  _163
REMARK   65  A    between atoms: _165  and  _167
REMARK   66  A    between atoms: _167  and  _168
REMARK   67  A    between atoms: _170  and  _172
REMARK   68  A    between atoms: _172  and  _173
REMARK   69  A    between atoms: _172  and  _175
REMARK   70  A    between atoms: _175  and  _176
REMARK   71  A    between atoms: _186  and  _188
REMARK   72  A    between atoms: _188  and  _189
REMARK   73  A    between atoms: _188  and  _191
REMARK   74  A    between atoms: _191  and  _192
REMARK   75  A    between atoms: _197  and  _198
REMARK   76  A    between atoms: _200  and  _202
REMARK   77  A    between atoms: _202  and  _203
REMARK   78  A    between atoms: _202  and  _205
REMARK   79  A    between atoms: _205  and  _206
REMARK   80  A    between atoms: _211  and  _212
REMARK   81  A    between atoms: _214  and  _216
REMARK   82  A    between atoms: _216  and  _217
REMARK   83  A    between atoms: _216  and  _219
REMARK   84  A    between atoms: _219  and  _220
REMARK   85  A    between atoms: _222  and  _224
REMARK   86  A    between atoms: _224  and  _225
REMARK   87  A    between atoms: _224  and  _227
REMARK   88  A    between atoms: _227  and  _228
REMARK   89  A    between atoms: _233  and  _235
REMARK   90  A    between atoms: _235  and  _236
REMARK   91  A    between atoms: _235  and  _238
REMARK   92  A    between atoms: _241  and  _243
REMARK   93  A    between atoms: _243  and  _244
REMARK   94  A    between atoms: _243  and  _246
REMARK   95  A    between atoms: _246  and  _247
REMARK   96  A    between atoms: _250  and  _252
REMARK   97  A    between atoms: _252  and  _253
REMARK   98  A    between atoms: _252  and  _255
REMARK   99  A    between atoms: _255  and  _256
REMARK  100  A    between atoms: _259  and  _261
REMARK  101  A    between atoms: _261  and  _262
REMARK  102  A    between atoms: _261  and  _264
REMARK  103  A    between atoms: _264  and  _265
REMARK  104  A    between atoms: _270  and  _272
REMARK  105  A    between atoms: _272  and  _273
REMARK  106  A    between atoms: _272  and  _275
REMARK  107  A    between atoms: _275  and  _276
REMARK  108  A    between atoms: _286  and  _288
REMARK  109  A    between atoms: _288  and  _289
REMARK  110  A    between atoms: _288  and  _291
REMARK  111  A    between atoms: _291  and  _292
REMARK  112  A    between atoms: _292  and  _293
REMARK  113  A    between atoms: _296  and  _298
REMARK  114  A    between atoms: _298  and  _299
REMARK  115  A    between atoms: _298  and  _301
REMARK  116  A    between atoms: _301  and  _302
REMARK  117  A    between atoms: _307  and  _308
REMARK  118  A    between atoms: _310  and  _312
REMARK  119  A    between atoms: _312  and  _313
REMARK  120  A    between atoms: _312  and  _315
REMARK  121  A    between atoms: _315  and  _316
REMARK  122  A    between atoms: _319  and  _321
REMARK  123  A    between atoms: _321  and  _322
REMARK  124  A    between atoms: _325  and  _327
REMARK  125  A    between atoms: _327  and  _328
REMARK  126  A    between atoms: _330  and  _332
REMARK  127  A    between atoms: _332  and  _333
REMARK  128  A    between atoms: _332  and  _335
REMARK  129  A    between atoms: _335  and  _336
REMARK  130  A    between atoms: _341  and  _343
REMARK  131  A    between atoms: _343  and  _344
REMARK  132  A    between atoms: _343  and  _346
REMARK  133  A    between atoms: _346  and  _347
REMARK  134  A    between atoms: _350  and  _352
REMARK  135  A    between atoms: _352  and  _353
REMARK  136  A    between atoms: _352  and  _355
REMARK  137  A    between atoms: _355  and  _356
REMARK  138  A    between atoms: _356  and  _357
REMARK  139  A    between atoms: _359  and  _361
REMARK  140  A    between atoms: _361  and  _362
REMARK  141  A    between atoms: _361  and  _364
REMARK  142  A    between atoms: _364  and  _365
REMARK  143  A    between atoms: _368  and  _370
REMARK  144  A    between atoms: _370  and  _371
REMARK  145  A    between atoms: _370  and  _373
REMARK  146  A    between atoms: _373  and  _374
REMARK  147  A    between atoms: _379  and  _380
REMARK  148  A    between atoms: _382  and  _384
REMARK  149  A    between atoms: _384  and  _385
REMARK  150  A    between atoms: _384  and  _387
REMARK  151  A    between atoms: _387  and  _388
REMARK  152  A    between atoms: _391  and  _393
REMARK  153  A    between atoms: _393  and  _394
REMARK  154  A    between atoms: _393  and  _396
REMARK  155  A    between atoms: _396  and  _397
REMARK  156  A    between atoms: _407  and  _409
REMARK  157  A    between atoms: _409  and  _410
REMARK  158  A    between atoms: _409  and  _412
REMARK  159  A    between atoms: _412  and  _413
REMARK  160  A    between atoms: _413  and  _414
REMARK  161  A    between atoms: _419  and  _421
REMARK  162  A    between atoms: _421  and  _422
REMARK  163  A    between atoms: _424  and  _426
REMARK  164  A    between atoms: _426  and  _427
REMARK  165  A    between atoms: _426  and  _429
REMARK  166  A    between atoms: _433  and  _434
REMARK  167  A    between atoms: _439  and  _441
REMARK  168  A    between atoms: _441  and  _442
REMARK  169  A    between atoms: _441  and  _444
REMARK  170  A    between atoms: _444  and  _445
REMARK  171  A    between atoms: _451  and  _453
REMARK  172  A    between atoms: _453  and  _454
REMARK  173  A    between atoms: _453  and  _456
REMARK  174  A    between atoms: _456  and  _457
REMARK  175  A    between atoms: _462  and  _463
REMARK  176  A    between atoms: _465  and  _467
REMARK  177  A    between atoms: _467  and  _468
REMARK  178  A    between atoms: _470  and  _472
REMARK  179  A    between atoms: _472  and  _473
REMARK  180  A    between atoms: _472  and  _475
REMARK  181  A    between atoms: _475  and  _476
REMARK  182  A    between atoms: _476  and  _477
REMARK  183  A    between atoms: _477  and  _478
REMARK  184  A    between atoms: _487  and  _489
REMARK  185  A    between atoms: _489  and  _490
REMARK  186  A    between atoms: _489  and  _492
REMARK  187  A    between atoms: _492  and  _493
REMARK  188  A    between atoms: _496  and  _498
REMARK  189  A    between atoms: _498  and  _499
REMARK  190  A    between atoms: _498  and  _501
REMARK  191  A    between atoms: _501  and  _502
REMARK  192  A    between atoms: _502  and  _503
REMARK  193  A    between atoms: _506  and  _508
REMARK  194  A    between atoms: _508  and  _509
REMARK  195  A    between atoms: _508  and  _511
REMARK  196  A    between atoms: _511  and  _512
REMARK  197  A    between atoms: _512  and  _513
REMARK  198  A    between atoms: _513  and  _514
REMARK  199  A    between atoms: _523  and  _525
REMARK  200  A    between atoms: _525  and  _526
REMARK  201  A    between atoms: _525  and  _528
REMARK  202  A    between atoms: _528  and  _529
REMARK  203  A    between atoms: _532  and  _534
REMARK  204  A    between atoms: _534  and  _535
REMARK  205  A    between atoms: _534  and  _537
REMARK  206  A    between atoms: _537  and  _538
REMARK  207  A    between atoms: _538  and  _539
REMARK  208  A    between atoms: _539  and  _540
REMARK  209  A    between atoms: _540  and  _541
REMARK  210  A    between atoms: _545  and  _547
REMARK  211  A    between atoms: _547  and  _548
REMARK  212  A    between atoms: _547  and  _550
REMARK  213  A    between atoms: _550  and  _551
REMARK  214  A    between atoms: _554  and  _556
REMARK  215  A    between atoms: _556  and  _557
REMARK  216  A    between atoms: _556  and  _559
REMARK  217  A    between atoms: _559  and  _560
REMARK  218  A    between atoms: _560  and  _561
REMARK  219  A    between atoms: _561  and  _562
REMARK  220  A    between atoms: _571  and  _573
REMARK  221  A    between atoms: _573  and  _574
REMARK  222  A    between atoms: _573  and  _576
REMARK  223  A    between atoms: _576  and  _577
REMARK  224  A    between atoms: _580  and  _582
REMARK  225  A    between atoms: _582  and  _583
REMARK  226  A    between atoms: _586  and  _588
REMARK  227  A    between atoms: _588  and  _589
REMARK  228  A    between atoms: _588  and  _591
REMARK  229  A    between atoms: _591  and  _592
REMARK  230  A    between atoms: _594  and  _596
REMARK  231  A    between atoms: _596  and  _597
REMARK  232  A    between atoms: _596  and  _599
REMARK  233  A    between atoms: _599  and  _600
REMARK  234  A    between atoms: _600  and  _601
REMARK  235  A    between atoms: _603  and  _605
REMARK  236  A    between atoms: _605  and  _606
REMARK  237  A    between atoms: _605  and  _608
REMARK  238  A    between atoms: _608  and  _609
REMARK  239  A    between atoms: _615  and  _617
REMARK  240  A    between atoms: _617  and  _618
REMARK  241  A    between atoms: _617  and  _620
REMARK  242  A    between atoms: _620  and  _621
REMARK  243  A    between atoms: _631  and  _633
REMARK  244  A    between atoms: _633  and  _634
REMARK  245  A    between atoms: _633  and  _636
REMARK  246  A    between atoms: _636  and  _637
REMARK  247  A    between atoms: _642  and  _644
REMARK  248  A    between atoms: _644  and  _645
REMARK  249  A    between atoms: _644  and  _647
REMARK  250  A    between atoms: _647  and  _648
REMARK  251  A    between atoms: _648  and  _649
REMARK                            x       y       z     vdW  Elec       q    Type
REMARK                         _______ _______ _______ _____ _____    ______ ____
ROOT
ATOM      1  CA  GLU A   1      19.482  28.498 111.994  0.00  0.00    +0.134 C 
ENDROOT
BRANCH   1   2
ATOM      2  N   GLU A   1      20.330  27.409 112.466  0.00  0.00    -0.239 NA
ATOM      3  H   GLU A   1      21.278  27.634 112.829  0.00  0.00    +0.142 HD
ENDBRANCH   1   2
BRANCH   1   4
ATOM      4  C   GLU A   1      19.105  28.320 110.509  0.00  0.00    +0.224 C 
ATOM      5  O   GLU A   1      18.003  28.683 110.089  0.00  0.00    -0.287 OA
ENDBRANCH   1   4
BRANCH   1   6
ATOM      6  CB  GLU A   1      20.240  29.803 112.238  0.00  0.00    +0.037 C 
BRANCH   6   7
ATOM      7  CG  GLU A   1      19.670  31.070 111.654  0.00  0.00    +0.116 C 
BRANCH   7   8
ATOM      8  CD  GLU A   1      20.629  32.236 111.877  0.00  0.00    +0.365 C 
ATOM      9  OE2 GLU A   1      20.699  32.742 113.020  0.00  0.00    -0.246 OA
ATOM     10  OE1 GLU A   1      21.332  32.617 110.917  0.00  0.00    -0.246 OA
ENDBRANCH   7   8
ENDBRANCH   6   7
ENDBRANCH   1   6
TORSDOF 5
REMARK  Name = ../refined-set-2016/1ogg/1ogg_pocket.pdb
REMARK  251 active torsions:
REMARK  status: ('A' for Active; 'I' for Inactive)
REMARK    1  A    between atoms: _1  and  _3
REMARK    2  A    between atoms: _3  and  _4
REMARK    3  A    between atoms: _3  and  _6
REMARK    4  A    between atoms: _6  and  _7
REMARK    5  A    between atoms: _10  and  _12
REMARK    6  A    between atoms: _12  and  _13
REMARK    7  A    between atoms: _15  and  _17
REMARK    8  A    between atoms: _17  and  _18
REMARK    9  A    between atoms: _17  and  _20
REMARK   10  A    between atoms: _20  and  _21
REMARK   11  A    between atoms: _26  and  _27
REMARK   12  A    between atoms: _29  and  _31
REMARK   13  A    between atoms: _31  and  _32
REMARK   14  A    between atoms: _31  and  _34
REMARK   15  A    between atoms: _34  and  _35
REMARK   16  A    between atoms: _40  and  _41
REMARK   17  A    between atoms: _43  and  _45
REMARK   18  A    between atoms: _45  and  _46
REMARK   19  A    between atoms: _45  and  _48
REMARK   20  A    between atoms: _48  and  _49
REMARK   21  A    between atoms: _55  and  _57
REMARK   22  A    between atoms: _57  and  _58
REMARK   23  A    between atoms: _57  and  _60
REMARK   24  A    between atoms: _60  and  _61
REMARK   25  A    between atoms: _65  and  _66
REMARK   26  A    between atoms: _71  and  _73
REMARK   27  A    between atoms: _73  and  _74
REMARK   28  A    between atoms: _73  and  _76
REMARK   29  A    between atoms: _76  and  _77
REMARK   30  A    between atoms: _80  and  _82
REMARK   31  A    between atoms: _82  and  _83
REMARK   32  A    between atoms: _82  and  _85
REMARK   33  A    between atoms: _85  and  _86
REMARK   34  A    between atoms: _91  and  _93
REMARK   35  A    between atoms: _93  and  _94
REMARK   36  A    between atoms: _93  and  _96
REMARK   37  A    between atoms: _96  and  _97
REMARK   38  A    between atoms: _97  and  _98
REMARK   39  A    between atoms: _103  and  _105
REMARK   40  A    between atoms: _105  and  _106
REMARK   41  A    between atoms: _105  and  _108
REMARK   42  A    between atoms: _108  and  _109
REMARK   43  A    between atoms: _114  and  _116
REMARK   44  A    between atoms: _116  and  _117
REMARK   45  A    between atoms: _116  and  _119
REMARK   46  A    between atoms: _119  and  _120
REMARK   47  A    between atoms: _122  and  _124
REMARK   48  A    between atoms: _124  and  _125
REMARK   49  A    between atoms: _124  and  _127
REMARK   50  A    between atoms: _127  and  _128
REMARK   51  A    between atoms: _134  and  _136
REMARK   52  A    between atoms: _136  and  _137
REMARK   53  A    between atoms: _136  and  _139
REMARK   54  A    between atoms: _139  and  _140
REMARK   55  A    between atoms: _143  and  _145
REMARK   56  A    between atoms: _145  and  _146
REMARK   57  A    between atoms: _145  and  _148
REMARK   58  A    between atoms: _148  and  _149
REMARK   59  A    between atoms: _151  and  _153
REMARK   60  A    between atoms: _153  and  _154
REMARK   61  A    between atoms: _153  and  _156
REMARK   62  A    between atoms: _156  and  _157
REMARK   63  A    between atoms: _160  and  _162
REMARK   64  A    between atoms: _162  and  _163
REMARK   65  A    between atoms: _165  and  _167
REMARK   66  A    between atoms: _167  and  _168
REMARK   67  A    between atoms: _170  and  _172
REMARK   68  A    between atoms: _172  and  _173
REMARK   69  A    between atoms: _172  and  _175
REMARK   70  A    between atoms: _175  and  _176
REMARK   71  A    between atoms: _186  and  _188
REMARK   72  A    between atoms: _188  and  _189
REMARK   73  A    between atoms: _188  and  _191
REMARK   74  A    between atoms: _191  and  _192
REMARK   75  A    between atoms: _197  and  _198
REMARK   76  A    between atoms: _200  and  _202
REMARK   77  A    between atoms: _202  and  _203
REMARK   78  A    between atoms: _202  and  _205
REMARK   79  A    between atoms: _205  and  _206
REMARK   80  A    between atoms: _211  and  _212
REMARK   81  A    between atoms: _214  and  _216
REMARK   82  A    between atoms: _216  and  _217
REMARK   83  A    between atoms: _216  and  _219
REMARK   84  A    between atoms: _219  and  _220
REMARK   85  A    between atoms: _222  and  _224
REMARK   86  A    between atoms: _224  and  _225
REMARK   87  A    between atoms: _224  and  _227
REMARK   88  A    between atoms: _227  and  _228
REMARK   89  A    between atoms: _233  and  _235
REMARK   90  A    between atoms: _235  and  _236
REMARK   91  A    between atoms: _235  and  _238
REMARK   92  A    between atoms: _241  and  _243
REMARK   93  A    between atoms: _243  and  _244
REMARK   94  A    between atoms: _243  and  _246
REMARK   95  A    between atoms: _246  and  _247
REMARK   96  A    between atoms: _250  and  _252
REMARK   97  A    between atoms: _252  and  _253
REMARK   98  A    between atoms: _252  and  _255
REMARK   99  A    between atoms: _255  and  _256
REMARK  100  A    between atoms: _259  and  _261
REMARK  101  A    between atoms: _261  and  _262
REMARK  102  A    between atoms: _261  and  _264
REMARK  103  A    between atoms: _264  and  _265
REMARK  104  A    between atoms: _270  and  _272
REMARK  105  A    between atoms: _272  and  _273
REMARK  106  A    between atoms: _272  and  _275
REMARK  107  A    between atoms: _275  and  _276
REMARK  108  A    between atoms: _286  and  _288
REMARK  109  A    between atoms: _288  and  _289
REMARK  110  A    between atoms: _288  and  _291
REMARK  111  A    between atoms: _291  and  _292
REMARK  112  A    between atoms: _292  and  _293
REMARK  113  A    between atoms: _296  and  _298
REMARK  114  A    between atoms: _298  and  _299
REMARK  115  A    between atoms: _298  and  _301
REMARK  116  A    between atoms: _301  and  _302
REMARK  117  A    between atoms: _307  and  _308
REMARK  118  A    between atoms: _310  and  _312
REMARK  119  A    between atoms: _312  and  _313
REMARK  120  A    between atoms: _312  and  _315
REMARK  121  A    between atoms: _315  and  _316
REMARK  122  A    between atoms: _319  and  _321
REMARK  123  A    between atoms: _321  and  _322
REMARK  124  A    between atoms: _325  and  _327
REMARK  125  A    between atoms: _327  and  _328
REMARK  126  A    between atoms: _330  and  _332
REMARK  127  A    between atoms: _332  and  _333
REMARK  128  A    between atoms: _332  and  _335
REMARK  129  A    between atoms: _335  and  _336
REMARK  130  A    between atoms: _341  and  _343
REMARK  131  A    between atoms: _343  and  _344
REMARK  132  A    between atoms: _343  and  _346
REMARK  133  A    between atoms: _346  and  _347
REMARK  134  A    between atoms: _350  and  _352
REMARK  135  A    between atoms: _352  and  _353
REMARK  136  A    between atoms: _352  and  _355
REMARK  137  A    between atoms: _355  and  _356
REMARK  138  A    between atoms: _356  and  _357
REMARK  139  A    between atoms: _359  and  _361
REMARK  140  A    between atoms: _361  and  _362
REMARK  141  A    between atoms: _361  and  _364
REMARK  142  A    between atoms: _364  and  _365
REMARK  143  A    between atoms: _368  and  _370
REMARK  144  A    between atoms: _370  and  _371
REMARK  145  A    between atoms: _370  and  _373
REMARK  146  A    between atoms: _373  and  _374
REMARK  147  A    between atoms: _379  and  _380
REMARK  148  A    between atoms: _382  and  _384
REMARK  149  A    between atoms: _384  and  _385
REMARK  150  A    between atoms: _384  and  _387
REMARK  151  A    between atoms: _387  and  _388
REMARK  152  A    between atoms: _391  and  _393
REMARK  153  A    between atoms: _393  and  _394
REMARK  154  A    between atoms: _393  and  _396
REMARK  155  A    between atoms: _396  and  _397
REMARK  156  A    between atoms: _407  and  _409
REMARK  157  A    between atoms: _409  and  _410
REMARK  158  A    between atoms: _409  and  _412
REMARK  159  A    between atoms: _412  and  _413
REMARK  160  A    between atoms: _413  and  _414
REMARK  161  A    between atoms: _419  and  _421
REMARK  162  A    between atoms: _421  and  _422
REMARK  163  A    between atoms: _424  and  _426
REMARK  164  A    between atoms: _426  and  _427
REMARK  165  A    between atoms: _426  and  _429
REMARK  166  A    between atoms: _433  and  _434
REMARK  167  A    between atoms: _439  and  _441
REMARK  168  A    between atoms: _441  and  _442
REMARK  169  A    between atoms: _441  and  _444
REMARK  170  A    between atoms: _444  and  _445
REMARK  171  A    between atoms: _451  and  _453
REMARK  172  A    between atoms: _453  and  _454
REMARK  173  A    between atoms: _453  and  _456
REMARK  174  A    between atoms: _456  and  _457
REMARK  175  A    between atoms: _462  and  _463
REMARK  176  A    between atoms: _465  and  _467
REMARK  177  A    between atoms: _467  and  _468
REMARK  178  A    between atoms: _470  and  _472
REMARK  179  A    between atoms: _472  and  _473
REMARK  180  A    between atoms: _472  and  _475
REMARK  181  A    between atoms: _475  and  _476
REMARK  182  A    between atoms: _476  and  _477
REMARK  183  A    between atoms: _477  and  _478
REMARK  184  A    between atoms: _487  and  _489
REMARK  185  A    between atoms: _489  and  _490
REMARK  186  A    between atoms: _489  and  _492
REMARK  187  A    between atoms: _492  and  _493
REMARK  188  A    between atoms: _496  and  _498
REMARK  189  A    between atoms: _498  and  _499
REMARK  190  A    between atoms: _498  and  _501
REMARK  191  A    between atoms: _501  and  _502
REMARK  192  A    between atoms: _502  and  _503
REMARK  193  A    between atoms: _506  and  _508
REMARK  194  A    between atoms: _508  and  _509
REMARK  195  A    between atoms: _508  and  _511
REMARK  196  A    between atoms: _511  and  _512
REMARK  197  A    between atoms: _512  and  _513
REMARK  198  A    between atoms: _513  and  _514
REMARK  199  A    between atoms: _523  and  _525
REMARK  200  A    between atoms: _525  and  _526
REMARK  201  A    between atoms: _525  and  _528
REMARK  202  A    between atoms: _528  and  _529
REMARK  203  A    between atoms: _532  and  _534
REMARK  204  A    between atoms: _534  and  _535
REMARK  205  A    between atoms: _534  and  _537
REMARK  206  A    between atoms: _537  and  _538
REMARK  207  A    between atoms: _538  and  _539
REMARK  208  A    between atoms: _539  and  _540
REMARK  209  A    between atoms: _540  and  _541
REMARK  210  A    between atoms: _545  and  _547
REMARK  211  A    between atoms: _547  and  _548
REMARK  212  A    between atoms: _547  and  _550
REMARK  213  A    between atoms: _550  and  _551
REMARK  214  A    between atoms: _554  and  _556
REMARK  215  A    between atoms: _556  and  _557
REMARK  216  A    between atoms: _556  and  _559
REMARK  217  A    between atoms: _559  and  _560
REMARK  218  A    between atoms: _560  and  _561
REMARK  219  A    between atoms: _561  and  _562
REMARK  220  A    between atoms: _571  and  _573
REMARK  221  A    between atoms: _573  and  _574
REMARK  222  A    between atoms: _573  and  _576
REMARK  223  A    between atoms: _576  and  _577
REMARK  224  A    between atoms: _580  and  _582
REMARK  225  A    between atoms: _582  and  _583
REMARK  226  A    between atoms: _586  and  _588
REMARK  227  A    between atoms: _588  and  _589
REMARK  228  A    between atoms: _588  and  _591
REMARK  229  A    between atoms: _591  and  _592
REMARK  230  A    between atoms: _594  and  _596
REMARK  231  A    between atoms: _596  and  _597
REMARK  232  A    between atoms: _596  and  _599
REMARK  233  A    between atoms: _599  and  _600
REMARK  234  A    between atoms: _600  and  _601
REMARK  235  A    between atoms: _603  and  _605
REMARK  236  A    between atoms: _605  and  _606
REMARK  237  A    between atoms: _605  and  _608
REMARK  238  A    between atoms: _608  and  _609
REMARK  239  A    between atoms: _615  and  _617
REMARK  240  A    between atoms: _617  and  _618
REMARK  241  A    between atoms: _617  and  _620
REMARK  242  A    between atoms: _620  and  _621
REMARK  243  A    between atoms: _631  and  _633
REMARK  244  A    between atoms: _633  and  _634
REMARK  245  A    between atoms: _633  and  _636
REMARK  246  A    between atoms: _636  and  _637
REMARK  247  A    between atoms: _642  and  _644
REMARK  248  A    between atoms: _644  and  _645
REMARK  249  A    between atoms: _644  and  _647
REMARK  250  A    between atoms: _647  and  _648
REMARK  251  A    between atoms: _648  and  _649
REMARK                            x       y       z     vdW  Elec       q    Type
REMARK                         _______ _______ _______ _____ _____    ______ ____
ROOT
ATOM      1  CA  ASP A   2      15.007  29.361 107.778  0.00  0.00    +0.160 C 
ENDROOT
BRANCH   1   4
ATOM      2  C   ARG A   1      14.481  27.735 109.515  0.00  0.00    +0.238 C 
ATOM      3  O   ARG A   1      13.282  27.771 109.240  0.00  0.00    -0.274 OA
ATOM      4  N   ASP A   2      15.388  28.457 108.859  0.00  0.00    -0.297 N 
ATOM      5  H   ASP A   2      16.391  28.375 109.123  0.00  0.00    +0.150 HD
BRANCH   2   6
ATOM      6  CA  ARG A   1      15.001  26.843 110.653  0.00  0.00    +0.145 C 
BRANCH   6   7
ATOM      7  N   ARG A   1      16.215  26.109 110.260  0.00  0.00    -0.238 NA
ATOM      8  H   ARG A   1      17.099  26.265 110.785  0.00  0.00    +0.142 HD
ENDBRANCH   6   7
BRANCH   6   9
ATOM      9  CB  ARG A   1      15.267  27.730 111.879  0.00  0.00    +0.030 C 
BRANCH   9  10
ATOM     10  CG  ARG A   1      14.075  28.619 112.298  0.00  0.00    +0.045 C 
BRANCH  10  11
ATOM     11  CD  ARG A   1      14.490  29.704 113.316  0.00  0.00    +0.174 C 
BRANCH  11  12
ATOM     12  NE  ARG A   1      13.359  30.327 114.021  0.00  0.00    -0.265 N 
ATOM     13  HE  ARG A   1      13.231  30.083 115.024  0.00  0.00    +0.259 HD
ATOM     14  CZ  ARG A   1      12.482  31.179 113.484  0.00  0.00    +0.342 C 
ATOM     15  NH2 ARG A   1      11.501  31.679 114.227  0.00  0.00    -0.292 N 
ATOM     16 HH21 ARG A   1      11.416  31.407 115.227  0.00  0.00    +0.255 HD
ATOM     17 HH22 ARG A   1      10.818  32.342 113.809  0.00  0.00    +0.255 HD
ATOM     18  NH1 ARG A   1      12.578  31.540 112.210  0.00  0.00    -0.292 N 
ATOM     19 HH11 ARG A   1      11.888  32.204 111.804  0.00  0.00    +0.255 HD
ATOM     20 HH12 ARG A   1      13.343  31.158 111.618  0.00  0.00    +0.255 HD
ENDBRANCH  11  12
ENDBRANCH  10  11
ENDBRANCH   9  10
ENDBRANCH   6   9
ENDBRANCH   2   6
ENDBRANCH   1   4
BRANCH   1  21
ATOM     21  C   ASP A   2      15.069  28.728 106.388  0.00  0.00    +0.241 C 
ATOM     22  N   LYS A   3      15.474  27.462 106.339  0.00  0.00    -0.297 N 
ATOM     23  H   LYS A   3      15.753  26.990 107.223  0.00  0.00    +0.150 HD
ATOM     24  O   ASP A   2      14.763  29.377 105.382  0.00  0.00    -0.273 OA
BRANCH  22  25
ATOM     25  CA  LYS A   3      15.540  26.711 105.087  0.00  0.00    +0.149 C 
BRANCH  25  26
ATOM     26  C   LYS A   3      16.446  27.323 104.003  0.00  0.00    +0.241 C 
ATOM     27  N   ASP A   4      17.654  27.719 104.395  0.00  0.00    -0.298 N 
ATOM     28  H   ASP A   4      17.917  27.638 105.398  0.00  0.00    +0.150 HD
ATOM     29  O   LYS A   3      16.054  27.450 102.840  0.00  0.00    -0.273 OA
BRANCH  27  30
ATOM     30  CA  ASP A   4      18.615  28.264 103.445  0.00  0.00    +0.148 C 
BRANCH  30  31
ATOM     31  C   ASP A   4      20.002  28.136 104.044  0.00  0.00    +0.227 C 
ATOM     32  O   ASP A   4      20.346  28.802 105.016  0.00  0.00    -0.286 OA
ENDBRANCH  30  31
BRANCH  30  33
ATOM     33  CB  ASP A   4      18.331  29.728 103.117  0.00  0.00    +0.142 C 
BRANCH  33  34
ATOM     34  CG  ASP A   4      18.993  30.156 101.824  0.00  0.00    +0.367 C 
ATOM     35  OD2 ASP A   4      20.151  29.723 101.578  0.00  0.00    -0.246 OA
ATOM     36  OD1 ASP A   4      18.361  30.911 101.052  0.00  0.00    -0.246 OA
ENDBRANCH  33  34
ENDBRANCH  30  33
ENDBRANCH  27  30
ENDBRANCH  25  26
BRANCH  25  37
ATOM     37  CB  LYS A   3      14.110  26.515 104.553  0.00  0.00    +0.029 C 
BRANCH  37  38
ATOM     38  CG  LYS A   3      13.155  25.949 105.595  0.00  0.00    +0.000 C 
BRANCH  38  39
ATOM     39  CD  LYS A   3      11.704  26.077 105.165  0.00  0.00    -0.024 C 
BRANCH  39  40
ATOM     40  CE  LYS A   3      10.767  25.633 106.279  0.00  0.00    -0.086 C 
BRANCH  40  41
ATOM     41  NZ  LYS A   3       9.336  25.837 105.924  0.00  0.00    +0.380 N 
ATOM     42  HZ1 LYS A   3       8.736  25.521 106.712  0.00  0.00    -0.089 HD
ATOM     43  HZ2 LYS A   3       9.166  26.847 105.741  0.00  0.00    -0.089 HD
ATOM     44  HZ3 LYS A   3       9.110  25.286 105.072  0.00  0.00    -0.089 HD
ENDBRANCH  40  41
ENDBRANCH  39  40
ENDBRANCH  38  39
ENDBRANCH  37  38
ENDBRANCH  25  37
ENDBRANCH  22  25
ENDBRANCH   1  21
BRANCH   1  45
ATOM     45  CB  ASP A   2      15.870  30.626 107.836  0.00  0.00    +0.143 C 
BRANCH  45  46
ATOM     46  CG  ASP A   2      15.783  31.322 109.190  0.00  0.00    +0.367 C 
ATOM     47  OD2 ASP A   2      14.672  31.378 109.755  0.00  0.00    -0.246 OA
ATOM     48  OD1 ASP A   2      16.815  31.817 109.694  0.00  0.00    -0.246 OA
ENDBRANCH  45  46
ENDBRANCH   1  45
TORSDOF 21
REMARK  Name = ../refined-set-2016/1ogg/1ogg_pocket.pdb
REMARK  251 active torsions:
REMARK  status: ('A' for Active; 'I' for Inactive)
REMARK    1  A    between atoms: _1  and  _3
REMARK    2  A    between atoms: _3  and  _4
REMARK    3  A    between atoms: _3  and  _6
REMARK    4  A    between atoms: _6  and  _7
REMARK    5  A    between atoms: _10  and  _12
REMARK    6  A    between atoms: _12  and  _13
REMARK    7  A    between atoms: _15  and  _17
REMARK    8  A    between atoms: _17  and  _18
REMARK    9  A    between atoms: _17  and  _20
REMARK   10  A    between atoms: _20  and  _21
REMARK   11  A    between atoms: _26  and  _27
REMARK   12  A    between atoms: _29  and  _31
REMARK   13  A    between atoms: _31  and  _32
REMARK   14  A    between atoms: _31  and  _34
REMARK   15  A    between atoms: _34  and  _35
REMARK   16  A    between atoms: _40  and  _41
REMARK   17  A    between atoms: _43  and  _45
REMARK   18  A    between atoms: _45  and  _46
REMARK   19  A    between atoms: _45  and  _48
REMARK   20  A    between atoms: _48  and  _49
REMARK   21  A    between atoms: _55  and  _57
REMARK   22  A    between atoms: _57  and  _58
REMARK   23  A    between atoms: _57  and  _60
REMARK   24  A    between atoms: _60  and  _61
REMARK   25  A    between atoms: _65  and  _66
REMARK   26  A    between atoms: _71  and  _73
REMARK   27  A    between atoms: _73  and  _74
REMARK   28  A    between atoms: _73  and  _76
REMARK   29  A    between atoms: _76  and  _77
REMARK   30  A    between atoms: _80  and  _82
REMARK   31  A    between atoms: _82  and  _83
REMARK   32  A    between atoms: _82  and  _85
REMARK   33  A    between atoms: _85  and  _86
REMARK   34  A    between atoms: _91  and  _93
REMARK   35  A    between atoms: _93  and  _94
REMARK   36  A    between atoms: _93  and  _96
REMARK   37  A    between atoms: _96  and  _97
REMARK   38  A    between atoms: _97  and  _98
REMARK   39  A    between atoms: _103  and  _105
REMARK   40  A    between atoms: _105  and  _106
REMARK   41  A    between atoms: _105  and  _108
REMARK   42  A    between atoms: _108  and  _109
REMARK   43  A    between atoms: _114  and  _116
REMARK   44  A    between atoms: _116  and  _117
REMARK   45  A    between atoms: _116  and  _119
REMARK   46  A    between atoms: _119  and  _120
REMARK   47  A    between atoms: _122  and  _124
REMARK   48  A    between atoms: _124  and  _125
REMARK   49  A    between atoms: _124  and  _127
REMARK   50  A    between atoms: _127  and  _128
REMARK   51  A    between atoms: _134  and  _136
REMARK   52  A    between atoms: _136  and  _137
REMARK   53  A    between atoms: _136  and  _139
REMARK   54  A    between atoms: _139  and  _140
REMARK   55  A    between atoms: _143  and  _145
REMARK   56  A    between atoms: _145  and  _146
REMARK   57  A    between atoms: _145  and  _148
REMARK   58  A    between atoms: _148  and  _149
REMARK   59  A    between atoms: _151  and  _153
REMARK   60  A    between atoms: _153  and  _154
REMARK   61  A    between atoms: _153  and  _156
REMARK   62  A    between atoms: _156  and  _157
REMARK   63  A    between atoms: _160  and  _162
REMARK   64  A    between atoms: _162  and  _163
REMARK   65  A    between atoms: _165  and  _167
REMARK   66  A    between atoms: _167  and  _168
REMARK   67  A    between atoms: _170  and  _172
REMARK   68  A    between atoms: _172  and  _173
REMARK   69  A    between atoms: _172  and  _175
REMARK   70  A    between atoms: _175  and  _176
REMARK   71  A    between atoms: _186  and  _188
REMARK   72  A    between atoms: _188  and  _189
REMARK   73  A    between atoms: _188  and  _191
REMARK   74  A    between atoms: _191  and  _192
REMARK   75  A    between atoms: _197  and  _198
REMARK   76  A    between atoms: _200  and  _202
REMARK   77  A    between atoms: _202  and  _203
REMARK   78  A    between atoms: _202  and  _205
REMARK   79  A    between atoms: _205  and  _206
REMARK   80  A    between atoms: _211  and  _212
REMARK   81  A    between atoms: _214  and  _216
REMARK   82  A    between atoms: _216  and  _217
REMARK   83  A    between atoms: _216  and  _219
REMARK   84  A    between atoms: _219  and  _220
REMARK   85  A    between atoms: _222  and  _224
REMARK   86  A    between atoms: _224  and  _225
REMARK   87  A    between atoms: _224  and  _227
REMARK   88  A    between atoms: _227  and  _228
REMARK   89  A    between atoms: _233  and  _235
REMARK   90  A    between atoms: _235  and  _236
REMARK   91  A    between atoms: _235  and  _238
REMARK   92  A    between atoms: _241  and  _243
REMARK   93  A    between atoms: _243  and  _244
REMARK   94  A    between atoms: _243  and  _246
REMARK   95  A    between atoms: _246  and  _247
REMARK   96  A    between atoms: _250  and  _252
REMARK   97  A    between atoms: _252  and  _253
REMARK   98  A    between atoms: _252  and  _255
REMARK   99  A    between atoms: _255  and  _256
REMARK  100  A    between atoms: _259  and  _261
REMARK  101  A    between atoms: _261  and  _262
REMARK  102  A    between atoms: _261  and  _264
REMARK  103  A    between atoms: _264  and  _265
REMARK  104  A    between atoms: _270  and  _272
REMARK  105  A    between atoms: _272  and  _273
REMARK  106  A    between atoms: _272  and  _275
REMARK  107  A    between atoms: _275  and  _276
REMARK  108  A    between atoms: _286  and  _288
REMARK  109  A    between atoms: _288  and  _289
REMARK  110  A    between atoms: _288  and  _291
REMARK  111  A    between atoms: _291  and  _292
REMARK  112  A    between atoms: _292  and  _293
REMARK  113  A    between atoms: _296  and  _298
REMARK  114  A    between atoms: _298  and  _299
REMARK  115  A    between atoms: _298  and  _301
REMARK  116  A    between atoms: _301  and  _302
REMARK  117  A    between atoms: _307  and  _308
REMARK  118  A    between atoms: _310  and  _312
REMARK  119  A    between atoms: _312  and  _313
REMARK  120  A    between atoms: _312  and  _315
REMARK  121  A    between atoms: _315  and  _316
REMARK  122  A    between atoms: _319  and  _321
REMARK  123  A    between atoms: _321  and  _322
REMARK  124  A    between atoms: _325  and  _327
REMARK  125  A    between atoms: _327  and  _328
REMARK  126  A    between atoms: _330  and  _332
REMARK  127  A    between atoms: _332  and  _333
REMARK  128  A    between atoms: _332  and  _335
REMARK  129  A    between atoms: _335  and  _336
REMARK  130  A    between atoms: _341  and  _343
REMARK  131  A    between atoms: _343  and  _344
REMARK  132  A    between atoms: _343  and  _346
REMARK  133  A    between atoms: _346  and  _347
REMARK  134  A    between atoms: _350  and  _352
REMARK  135  A    between atoms: _352  and  _353
REMARK  136  A    between atoms: _352  and  _355
REMARK  137  A    between atoms: _355  and  _356
REMARK  138  A    between atoms: _356  and  _357
REMARK  139  A    between atoms: _359  and  _361
REMARK  140  A    between atoms: _361  and  _362
REMARK  141  A    between atoms: _361  and  _364
REMARK  142  A    between atoms: _364  and  _365
REMARK  143  A    between atoms: _368  and  _370
REMARK  144  A    between atoms: _370  and  _371
REMARK  145  A    between atoms: _370  and  _373
REMARK  146  A    between atoms: _373  and  _374
REMARK  147  A    between atoms: _379  and  _380
REMARK  148  A    between atoms: _382  and  _384
REMARK  149  A    between atoms: _384  and  _385
REMARK  150  A    between atoms: _384  and  _387
REMARK  151  A    between atoms: _387  and  _388
REMARK  152  A    between atoms: _391  and  _393
REMARK  153  A    between atoms: _393  and  _394
REMARK  154  A    between atoms: _393  and  _396
REMARK  155  A    between atoms: _396  and  _397
REMARK  156  A    between atoms: _407  and  _409
REMARK  157  A    between atoms: _409  and  _410
REMARK  158  A    between atoms: _409  and  _412
REMARK  159  A    between atoms: _412  and  _413
REMARK  160  A    between atoms: _413  and  _414
REMARK  161  A    between atoms: _419  and  _421
REMARK  162  A    between atoms: _421  and  _422
REMARK  163  A    between atoms: _424  and  _426
REMARK  164  A    between atoms: _426  and  _427
REMARK  165  A    between atoms: _426  and  _429
REMARK  166  A    between atoms: _433  and  _434
REMARK  167  A    between atoms: _439  and  _441
REMARK  168  A    between atoms: _441  and  _442
REMARK  169  A    between atoms: _441  and  _444
REMARK  170  A    between atoms: _444  and  _445
REMARK  171  A    between atoms: _451  and  _453
REMARK  172  A    between atoms: _453  and  _454
REMARK  173  A    between atoms: _453  and  _456
REMARK  174  A    between atoms: _456  and  _457
REMARK  175  A    between atoms: _462  and  _463
REMARK  176  A    between atoms: _465  and  _467
REMARK  177  A    between atoms: _467  and  _468
REMARK  178  A    between atoms: _470  and  _472
REMARK  179  A    between atoms: _472  and  _473
REMARK  180  A    between atoms: _472  and  _475
REMARK  181  A    between atoms: _475  and  _476
REMARK  182  A    between atoms: _476  and  _477
REMARK  183  A    between atoms: _477  and  _478
REMARK  184  A    between atoms: _487  and  _489
REMARK  185  A    between atoms: _489  and  _490
REMARK  186  A    between atoms: _489  and  _492
REMARK  187  A    between atoms: _492  and  _493
REMARK  188  A    between atoms: _496  and  _498
REMARK  189  A    between atoms: _498  and  _499
REMARK  190  A    between atoms: _498  and  _501
REMARK  191  A    between atoms: _501  and  _502
REMARK  192  A    between atoms: _502  and  _503
REMARK  193  A    between atoms: _506  and  _508
REMARK  194  A    between atoms: _508  and  _509
REMARK  195  A    between atoms: _508  and  _511
REMARK  196  A    between atoms: _511  and  _512
REMARK  197  A    between atoms: _512  and  _513
REMARK  198  A    between atoms: _513  and  _514
REMARK  199  A    between atoms: _523  and  _525
REMARK  200  A    between atoms: _525  and  _526
REMARK  201  A    between atoms: _525  and  _528
REMARK  202  A    between atoms: _528  and  _529
REMARK  203  A    between atoms: _532  and  _534
REMARK  204  A    between atoms: _534  and  _535
REMARK  205  A    between atoms: _534  and  _537
REMARK  206  A    between atoms: _537  and  _538
REMARK  207  A    between atoms: _538  and  _539
REMARK  208  A    between atoms: _539  and  _540
REMARK  209  A    between atoms: _540  and  _541
REMARK  210  A    between atoms: _545  and  _547
REMARK  211  A    between atoms: _547  and  _548
REMARK  212  A    between atoms: _547  and  _550
REMARK  213  A    between atoms: _550  and  _551
REMARK  214  A    between atoms: _554  and  _556
REMARK  215  A    between atoms: _556  and  _557
REMARK  216  A    between atoms: _556  and  _559
REMARK  217  A    between atoms: _559  and  _560
REMARK  218  A    between atoms: _560  and  _561
REMARK  219  A    between atoms: _561  and  _562
REMARK  220  A    between atoms: _571  and  _573
REMARK  221  A    between atoms: _573  and  _574
REMARK  222  A    between atoms: _573  and  _576
REMARK  223  A    between atoms: _576  and  _577
REMARK  224  A    between atoms: _580  and  _582
REMARK  225  A    between atoms: _582  and  _583
REMARK  226  A    between atoms: _586  and  _588
REMARK  227  A    between atoms: _588  and  _589
REMARK  228  A    between atoms: _588  and  _591
REMARK  229  A    between atoms: _591  and  _592
REMARK  230  A    between atoms: _594  and  _596
REMARK  231  A    between atoms: _596  and  _597
REMARK  232  A    between atoms: _596  and  _599
REMARK  233  A    between atoms: _599  and  _600
REMARK  234  A    between atoms: _600  and  _601
REMARK  235  A    between atoms: _603  and  _605
REMARK  236  A    between atoms: _605  and  _606
REMARK  237  A    between atoms: _605  and  _608
REMARK  238  A    between atoms: _608  and  _609
REMARK  239  A    between atoms: _615  and  _617
REMARK  240  A    between atoms: _617  and  _618
REMARK  241  A    between atoms: _617  and  _620
REMARK  242  A    between atoms: _620  and  _621
REMARK  243  A    between atoms: _631  and  _633
REMARK  244  A    between atoms: _633  and  _634
REMARK  245  A    between atoms: _633  and  _636
REMARK  246  A    between atoms: _636  and  _637
REMARK  247  A    between atoms: _642  and  _644
REMARK  248  A    between atoms: _644  and  _645
REMARK  249  A    between atoms: _644  and  _647
REMARK  250  A    between atoms: _647  and  _648
REMARK  251  A    between atoms: _648  and  _649
REMARK                            x       y       z     vdW  Elec       q    Type
REMARK                         _______ _______ _______ _____ _____    ______ ____
ROOT
ATOM      1  CA  ILE A   2      23.105  32.704 104.842  0.00  0.00    +0.148 C 
ENDROOT
BRANCH   1   3
ATOM      2  C   ARG A   1      23.751  31.402 102.878  0.00  0.00    +0.238 C 
ATOM      3  N   ILE A   2      23.045  31.517 103.996  0.00  0.00    -0.297 N 
ATOM      4  H   ILE A   2      22.426  30.731 104.280  0.00  0.00    +0.150 HD
ATOM      5  O   ARG A   1      24.530  32.268 102.485  0.00  0.00    -0.274 OA
BRANCH   2   6
ATOM      6  CA  ARG A   1      23.567  30.107 102.091  0.00  0.00    +0.145 C 
BRANCH   6   7
ATOM      7  N   ARG A   1      22.666  29.138 102.720  0.00  0.00    -0.238 NA
ATOM      8  H   ARG A   1      21.643  29.199 102.544  0.00  0.00    +0.142 HD
ENDBRANCH   6   7
BRANCH   6   9
ATOM      9  CB  ARG A   1      23.074  30.417 100.673  0.00  0.00    +0.030 C 
BRANCH   9  10
ATOM     10  CG  ARG A   1      22.887  29.168  99.805  0.00  0.00    +0.045 C 
BRANCH  10  11
ATOM     11  CD  ARG A   1      22.121  29.496  98.538  0.00  0.00    +0.174 C 
BRANCH  11  12
ATOM     12  NE  ARG A   1      20.783  29.996  98.832  0.00  0.00    -0.265 N 
ATOM     13  HE  ARG A   1      20.506  30.085  99.831  0.00  0.00    +0.259 HD
ATOM     14  CZ  ARG A   1      19.891  30.347  97.906  0.00  0.00    +0.342 C 
ATOM     15  NH2 ARG A   1      18.685  30.759  98.273  0.00  0.00    -0.292 N 
ATOM     16 HH21 ARG A   1      18.437  30.808  99.282  0.00  0.00    +0.255 HD
ATOM     17 HH22 ARG A   1      17.987  31.033  97.552  0.00  0.00    +0.255 HD
ATOM     18  NH1 ARG A   1      20.191  30.266  96.609  0.00  0.00    -0.292 N 
ATOM     19 HH11 ARG A   1      21.128  29.926  96.312  0.00  0.00    +0.255 HD
ATOM     20 HH12 ARG A   1      19.488  30.542  95.894  0.00  0.00    +0.255 HD
ENDBRANCH  11  12
ENDBRANCH  10  11
ENDBRANCH   9  10
ENDBRANCH   6   9
ENDBRANCH   2   6
ENDBRANCH   1   3
BRANCH   1  21
ATOM     21  C   ILE A   2      23.070  32.290 106.301  0.00  0.00    +0.241 C 
ATOM     22  N   ALA A   3      23.774  33.045 107.133  0.00  0.00    -0.297 N 
ATOM     23  H   ALA A   3      24.293  33.860 106.748  0.00  0.00    +0.150 HD
ATOM     24  O   ILE A   2      22.416  31.310 106.664  0.00  0.00    -0.273 OA
BRANCH  22  25
ATOM     25  CA  ALA A   3      23.851  32.780 108.571  0.00  0.00    +0.149 C 
ATOM     26  CB  ALA A   3      24.934  31.725 108.866  0.00  0.00    +0.031 C 
BRANCH  25  27
ATOM     27  C   ALA A   3      24.216  34.075 109.265  0.00  0.00    +0.241 C 
ATOM     28  N   SER A   4      23.538  34.337 110.376  0.00  0.00    -0.296 N 
ATOM     29  H   SER A   4      22.815  33.658 110.688  0.00  0.00    +0.150 HD
ATOM     30  O   ALA A   3      25.110  34.805 108.809  0.00  0.00    -0.273 OA
BRANCH  28  31
ATOM     31  CA  SER A   4      23.762  35.532 111.176  0.00  0.00    +0.166 C 
BRANCH  31  32
ATOM     32  CB  SER A   4      25.110  35.438 111.844  0.00  0.00    +0.229 C 
ATOM     33  OG  SER A   4      25.665  34.341 111.987  0.00  0.00    -0.286 OA
ENDBRANCH  31  32
BRANCH  31  34
ATOM     34  C   SER A   4      22.692  35.634 112.264  0.00  0.00    +0.165 C 
BRANCH  34  35
ATOM     35  O   SER A   4      22.883  34.609 113.229  0.00  0.00    -0.380 OA
ATOM     36  H   SER A   4      22.817  33.725 112.788  0.00  0.00    +0.211 HD
ENDBRANCH  34  35
ENDBRANCH  31  34
ENDBRANCH  28  31
ENDBRANCH  25  27
ENDBRANCH  22  25
ENDBRANCH   1  21
BRANCH   1  37
ATOM     37  CB  ILE A   2      21.910  33.647 104.589  0.00  0.00    +0.027 C 
ATOM     38  CG2 ILE A   2      21.874  34.731 105.653  0.00  0.00    +0.002 C 
BRANCH  37  39
ATOM     39  CG1 ILE A   2      22.024  34.303 103.209  0.00  0.00    +0.002 C 
ATOM     40  CD1 ILE A   2      23.012  35.465 103.149  0.00  0.00    +0.000 C 
ENDBRANCH  37  39
ENDBRANCH   1  37
TORSDOF 16
REMARK  Name = ../refined-set-2016/1ogg/1ogg_pocket.pdb
REMARK  251 active torsions:
REMARK  status: ('A' for Active; 'I' for Inactive)
REMARK    1  A    between atoms: _1  and  _3
REMARK    2  A    between atoms: _3  and  _4
REMARK    3  A    between atoms: _3  and  _6
REMARK    4  A    between atoms: _6  and  _7
REMARK    5  A    between atoms: _10  and  _12
REMARK    6  A    between atoms: _12  and  _13
REMARK    7  A    between atoms: _15  and  _17
REMARK    8  A    between atoms: _17  and  _18
REMARK    9  A    between atoms: _17  and  _20
REMARK   10  A    between atoms: _20  and  _21
REMARK   11  A    between atoms: _26  and  _27
REMARK   12  A    between atoms: _29  and  _31
REMARK   13  A    between atoms: _31  and  _32
REMARK   14  A    between atoms: _31  and  _34
REMARK   15  A    between atoms: _34  and  _35
REMARK   16  A    between atoms: _40  and  _41
REMARK   17  A    between atoms: _43  and  _45
REMARK   18  A    between atoms: _45  and  _46
REMARK   19  A    between atoms: _45  and  _48
REMARK   20  A    between atoms: _48  and  _49
REMARK   21  A    between atoms: _55  and  _57
REMARK   22  A    between atoms: _57  and  _58
REMARK   23  A    between atoms: _57  and  _60
REMARK   24  A    between atoms: _60  and  _61
REMARK   25  A    between atoms: _65  and  _66
REMARK   26  A    between atoms: _71  and  _73
REMARK   27  A    between atoms: _73  and  _74
REMARK   28  A    between atoms: _73  and  _76
REMARK   29  A    between atoms: _76  and  _77
REMARK   30  A    between atoms: _80  and  _82
REMARK   31  A    between atoms: _82  and  _83
REMARK   32  A    between atoms: _82  and  _85
REMARK   33  A    between atoms: _85  and  _86
REMARK   34  A    between atoms: _91  and  _93
REMARK   35  A    between atoms: _93  and  _94
REMARK   36  A    between atoms: _93  and  _96
REMARK   37  A    between atoms: _96  and  _97
REMARK   38  A    between atoms: _97  and  _98
REMARK   39  A    between atoms: _103  and  _105
REMARK   40  A    between atoms: _105  and  _106
REMARK   41  A    between atoms: _105  and  _108
REMARK   42  A    between atoms: _108  and  _109
REMARK   43  A    between atoms: _114  and  _116
REMARK   44  A    between atoms: _116  and  _117
REMARK   45  A    between atoms: _116  and  _119
REMARK   46  A    between atoms: _119  and  _120
REMARK   47  A    between atoms: _122  and  _124
REMARK   48  A    between atoms: _124  and  _125
REMARK   49  A    between atoms: _124  and  _127
REMARK   50  A    between atoms: _127  and  _128
REMARK   51  A    between atoms: _134  and  _136
REMARK   52  A    between atoms: _136  and  _137
REMARK   53  A    between atoms: _136  and  _139
REMARK   54  A    between atoms: _139  and  _140
REMARK   55  A    between atoms: _143  and  _145
REMARK   56  A    between atoms: _145  and  _146
REMARK   57  A    between atoms: _145  and  _148
REMARK   58  A    between atoms: _148  and  _149
REMARK   59  A    between atoms: _151  and  _153
REMARK   60  A    between atoms: _153  and  _154
REMARK   61  A    between atoms: _153  and  _156
REMARK   62  A    between atoms: _156  and  _157
REMARK   63  A    between atoms: _160  and  _162
REMARK   64  A    between atoms: _162  and  _163
REMARK   65  A    between atoms: _165  and  _167
REMARK   66  A    between atoms: _167  and  _168
REMARK   67  A    between atoms: _170  and  _172
REMARK   68  A    between atoms: _172  and  _173
REMARK   69  A    between atoms: _172  and  _175
REMARK   70  A    between atoms: _175  and  _176
REMARK   71  A    between atoms: _186  and  _188
REMARK   72  A    between atoms: _188  and  _189
REMARK   73  A    between atoms: _188  and  _191
REMARK   74  A    between atoms: _191  and  _192
REMARK   75  A    between atoms: _197  and  _198
REMARK   76  A    between atoms: _200  and  _202
REMARK   77  A    between atoms: _202  and  _203
REMARK   78  A    between atoms: _202  and  _205
REMARK   79  A    between atoms: _205  and  _206
REMARK   80  A    between atoms: _211  and  _212
REMARK   81  A    between atoms: _214  and  _216
REMARK   82  A    between atoms: _216  and  _217
REMARK   83  A    between atoms: _216  and  _219
REMARK   84  A    between atoms: _219  and  _220
REMARK   85  A    between atoms: _222  and  _224
REMARK   86  A    between atoms: _224  and  _225
REMARK   87  A    between atoms: _224  and  _227
REMARK   88  A    between atoms: _227  and  _228
REMARK   89  A    between atoms: _233  and  _235
REMARK   90  A    between atoms: _235  and  _236
REMARK   91  A    between atoms: _235  and  _238
REMARK   92  A    between atoms: _241  and  _243
REMARK   93  A    between atoms: _243  and  _244
REMARK   94  A    between atoms: _243  and  _246
REMARK   95  A    between atoms: _246  and  _247
REMARK   96  A    between atoms: _250  and  _252
REMARK   97  A    between atoms: _252  and  _253
REMARK   98  A    between atoms: _252  and  _255
REMARK   99  A    between atoms: _255  and  _256
REMARK  100  A    between atoms: _259  and  _261
REMARK  101  A    between atoms: _261  and  _262
REMARK  102  A    between atoms: _261  and  _264
REMARK  103  A    between atoms: _264  and  _265
REMARK  104  A    between atoms: _270  and  _272
REMARK  105  A    between atoms: _272  and  _273
REMARK  106  A    between atoms: _272  and  _275
REMARK  107  A    between atoms: _275  and  _276
REMARK  108  A    between atoms: _286  and  _288
REMARK  109  A    between atoms: _288  and  _289
REMARK  110  A    between atoms: _288  and  _291
REMARK  111  A    between atoms: _291  and  _292
REMARK  112  A    between atoms: _292  and  _293
REMARK  113  A    between atoms: _296  and  _298
REMARK  114  A    between atoms: _298  and  _299
REMARK  115  A    between atoms: _298  and  _301
REMARK  116  A    between atoms: _301  and  _302
REMARK  117  A    between atoms: _307  and  _308
REMARK  118  A    between atoms: _310  and  _312
REMARK  119  A    between atoms: _312  and  _313
REMARK  120  A    between atoms: _312  and  _315
REMARK  121  A    between atoms: _315  and  _316
REMARK  122  A    between atoms: _319  and  _321
REMARK  123  A    between atoms: _321  and  _322
REMARK  124  A    between atoms: _325  and  _327
REMARK  125  A    between atoms: _327  and  _328
REMARK  126  A    between atoms: _330  and  _332
REMARK  127  A    between atoms: _332  and  _333
REMARK  128  A    between atoms: _332  and  _335
REMARK  129  A    between atoms: _335  and  _336
REMARK  130  A    between atoms: _341  and  _343
REMARK  131  A    between atoms: _343  and  _344
REMARK  132  A    between atoms: _343  and  _346
REMARK  133  A    between atoms: _346  and  _347
REMARK  134  A    between atoms: _350  and  _352
REMARK  135  A    between atoms: _352  and  _353
REMARK  136  A    between atoms: _352  and  _355
REMARK  137  A    between atoms: _355  and  _356
REMARK  138  A    between atoms: _356  and  _357
REMARK  139  A    between atoms: _359  and  _361
REMARK  140  A    between atoms: _361  and  _362
REMARK  141  A    between atoms: _361  and  _364
REMARK  142  A    between atoms: _364  and  _365
REMARK  143  A    between atoms: _368  and  _370
REMARK  144  A    between atoms: _370  and  _371
REMARK  145  A    between atoms: _370  and  _373
REMARK  146  A    between atoms: _373  and  _374
REMARK  147  A    between atoms: _379  and  _380
REMARK  148  A    between atoms: _382  and  _384
REMARK  149  A    between atoms: _384  and  _385
REMARK  150  A    between atoms: _384  and  _387
REMARK  151  A    between atoms: _387  and  _388
REMARK  152  A    between atoms: _391  and  _393
REMARK  153  A    between atoms: _393  and  _394
REMARK  154  A    between atoms: _393  and  _396
REMARK  155  A    between atoms: _396  and  _397
REMARK  156  A    between atoms: _407  and  _409
REMARK  157  A    between atoms: _409  and  _410
REMARK  158  A    between atoms: _409  and  _412
REMARK  159  A    between atoms: _412  and  _413
REMARK  160  A    between atoms: _413  and  _414
REMARK  161  A    between atoms: _419  and  _421
REMARK  162  A    between atoms: _421  and  _422
REMARK  163  A    between atoms: _424  and  _426
REMARK  164  A    between atoms: _426  and  _427
REMARK  165  A    between atoms: _426  and  _429
REMARK  166  A    between atoms: _433  and  _434
REMARK  167  A    between atoms: _439  and  _441
REMARK  168  A    between atoms: _441  and  _442
REMARK  169  A    between atoms: _441  and  _444
REMARK  170  A    between atoms: _444  and  _445
REMARK  171  A    between atoms: _451  and  _453
REMARK  172  A    between atoms: _453  and  _454
REMARK  173  A    between atoms: _453  and  _456
REMARK  174  A    between atoms: _456  and  _457
REMARK  175  A    between atoms: _462  and  _463
REMARK  176  A    between atoms: _465  and  _467
REMARK  177  A    between atoms: _467  and  _468
REMARK  178  A    between atoms: _470  and  _472
REMARK  179  A    between atoms: _472  and  _473
REMARK  180  A    between atoms: _472  and  _475
REMARK  181  A    between atoms: _475  and  _476
REMARK  182  A    between atoms: _476  and  _477
REMARK  183  A    between atoms: _477  and  _478
REMARK  184  A    between atoms: _487  and  _489
REMARK  185  A    between atoms: _489  and  _490
REMARK  186  A    between atoms: _489  and  _492
REMARK  187  A    between atoms: _492  and  _493
REMARK  188  A    between atoms: _496  and  _498
REMARK  189  A    between atoms: _498  and  _499
REMARK  190  A    between atoms: _498  and  _501
REMARK  191  A    between atoms: _501  and  _502
REMARK  192  A    between atoms: _502  and  _503
REMARK  193  A    between atoms: _506  and  _508
REMARK  194  A    between atoms: _508  and  _509
REMARK  195  A    between atoms: _508  and  _511
REMARK  196  A    between atoms: _511  and  _512
REMARK  197  A    between atoms: _512  and  _513
REMARK  198  A    between atoms: _513  and  _514
REMARK  199  A    between atoms: _523  and  _525
REMARK  200  A    between atoms: _525  and  _526
REMARK  201  A    between atoms: _525  and  _528
REMARK  202  A    between atoms: _528  and  _529
REMARK  203  A    between atoms: _532  and  _534
REMARK  204  A    between atoms: _534  and  _535
REMARK  205  A    between atoms: _534  and  _537
REMARK  206  A    between atoms: _537  and  _538
REMARK  207  A    between atoms: _538  and  _539
REMARK  208  A    between atoms: _539  and  _540
REMARK  209  A    between atoms: _540  and  _541
REMARK  210  A    between atoms: _545  and  _547
REMARK  211  A    between atoms: _547  and  _548
REMARK  212  A    between atoms: _547  and  _550
REMARK  213  A    between atoms: _550  and  _551
REMARK  214  A    between atoms: _554  and  _556
REMARK  215  A    between atoms: _556  and  _557
REMARK  216  A    between atoms: _556  and  _559
REMARK  217  A    between atoms: _559  and  _560
REMARK  218  A    between atoms: _560  and  _561
REMARK  219  A    between atoms: _561  and  _562
REMARK  220  A    between atoms: _571  and  _573
REMARK  221  A    between atoms: _573  and  _574
REMARK  222  A    between atoms: _573  and  _576
REMARK  223  A    between atoms: _576  and  _577
REMARK  224  A    between atoms: _580  and  _582
REMARK  225  A    between atoms: _582  and  _583
REMARK  226  A    between atoms: _586  and  _588
REMARK  227  A    between atoms: _588  and  _589
REMARK  228  A    between atoms: _588  and  _591
REMARK  229  A    between atoms: _591  and  _592
REMARK  230  A    between atoms: _594  and  _596
REMARK  231  A    between atoms: _596  and  _597
REMARK  232  A    between atoms: _596  and  _599
REMARK  233  A    between atoms: _599  and  _600
REMARK  234  A    between atoms: _600  and  _601
REMARK  235  A    between atoms: _603  and  _605
REMARK  236  A    between atoms: _605  and  _606
REMARK  237  A    between atoms: _605  and  _608
REMARK  238  A    between atoms: _608  and  _609
REMARK  239  A    between atoms: _615  and  _617
REMARK  240  A    between atoms: _617  and  _618
REMARK  241  A    between atoms: _617  and  _620
REMARK  242  A    between atoms: _620  and  _621
REMARK  243  A    between atoms: _631  and  _633
REMARK  244  A    between atoms: _633  and  _634
REMARK  245  A    between atoms: _633  and  _636
REMARK  246  A    between atoms: _636  and  _637
REMARK  247  A    between atoms: _642  and  _644
REMARK  248  A    between atoms: _644  and  _645
REMARK  249  A    between atoms: _644  and  _647
REMARK  250  A    between atoms: _647  and  _648
REMARK  251  A    between atoms: _648  and  _649
REMARK                            x       y       z     vdW  Elec       q    Type
REMARK                         _______ _______ _______ _____ _____    ______ ____
ROOT
ATOM      1  CA  TRP A   3      21.685  44.980 108.449  0.00  0.00    +0.153 C 
ENDROOT
BRANCH   1   4
ATOM      2  C   PHE A   2      22.738  46.985 109.342  0.00  0.00    +0.241 C 
ATOM      3  O   PHE A   2      21.692  47.407 109.814  0.00  0.00    -0.273 OA
ATOM      4  N   TRP A   3      22.815  45.869 108.631  0.00  0.00    -0.297 N 
ATOM      5  H   TRP A   3      23.722  45.622 108.186  0.00  0.00    +0.150 HD
BRANCH   2   6
ATOM      6  CA  PHE A   2      24.040  47.751 109.504  0.00  0.00    +0.153 C 
BRANCH   6   8
ATOM      7  C   MET A   1      24.772  49.985 109.062  0.00  0.00    +0.238 C 
ATOM      8  N   PHE A   2      23.878  49.193 109.633  0.00  0.00    -0.297 N 
ATOM      9  H   PHE A   2      23.077  49.592 110.163  0.00  0.00    +0.150 HD
ATOM     10  O   MET A   1      25.767  49.537 108.508  0.00  0.00    -0.274 OA
BRANCH   7  11
ATOM     11  CA  MET A   1      24.570  51.499 109.150  0.00  0.00    +0.146 C 
BRANCH  11  12
ATOM     12  N   MET A   1      25.934  52.048 109.112  0.00  0.00    -0.238 NA
ATOM     13  H   MET A   1      26.611  51.666 108.421  0.00  0.00    +0.142 HD
ENDBRANCH  11  12
BRANCH  11  14
ATOM     14  CB  MET A   1      23.784  52.028 107.942  0.00  0.00    +0.038 C 
BRANCH  14  15
ATOM     15  CG  MET A   1      22.574  51.234 107.479  0.00  0.00    +0.060 C 
BRANCH  15  16
ATOM     16  SD  MET A   1      22.870  49.663 106.563  0.00  0.00    -0.139 S 
ATOM     17  CE  MET A   1      22.871  50.174 104.829  0.00  0.00    +0.069 C 
ENDBRANCH  15  16
ENDBRANCH  14  15
ENDBRANCH  11  14
ENDBRANCH   7  11
ENDBRANCH   6   8
BRANCH   6  18
ATOM     18  CB  PHE A   2      24.870  47.159 110.681  0.00  0.00    +0.055 C 
BRANCH  18  19
ATOM     19  CG  PHE A   2      24.290  47.421 112.064  0.00  0.00    -0.020 A 
ATOM     20  CD2 PHE A   2      24.748  48.489 112.836  0.00  0.00    -0.004 A 
ATOM     21  CE2 PHE A   2      24.225  48.735 114.114  0.00  0.00    -0.000 A 
ATOM     22  CZ  PHE A   2      23.228  47.904 114.632  0.00  0.00    -0.000 A 
ATOM     23  CE1 PHE A   2      22.759  46.832 113.882  0.00  0.00    -0.000 A 
ATOM     24  CD1 PHE A   2      23.292  46.594 112.597  0.00  0.00    -0.004 A 
ENDBRANCH  18  19
ENDBRANCH   6  18
ENDBRANCH   2   6
ENDBRANCH   1   4
BRANCH   1  25
ATOM     25  C   TRP A   3      22.089  43.588 109.003  0.00  0.00    +0.241 C 
ATOM     26  N   HIS A   4      21.460  43.120 110.081  0.00  0.00    -0.298 N 
ATOM     27  H   HIS A   4      21.664  42.143 110.375  0.00  0.00    +0.150 HD
ATOM     28  O   TRP A   3      22.928  42.907 108.401  0.00  0.00    -0.273 OA
BRANCH  26  29
ATOM     29  CA  HIS A   4      20.508  43.880 110.875  0.00  0.00    +0.143 C 
BRANCH  29  30
ATOM     30  C   HIS A   4      20.702  43.499 112.346  0.00  0.00    +0.227 C 
ATOM     31  O   HIS A   4      21.309  42.458 112.672  0.00  0.00    -0.286 OA
ENDBRANCH  29  30
BRANCH  29  32
ATOM     32  CB  HIS A   4      19.044  43.667 110.405  0.00  0.00    +0.075 C 
BRANCH  32  33
ATOM     33  CG  HIS A   4      18.460  42.319 110.724  0.00  0.00    +0.082 A 
ATOM     34  ND1 HIS A   4      17.802  42.045 111.905  0.00  0.00    -0.227 NA
ATOM     35  CE1 HIS A   4      17.350  40.803 111.881  0.00  0.00    +0.199 A 
ATOM     36  NE2 HIS A   4      17.691  40.261 110.725  0.00  0.00    -0.221 NA
ATOM     37  CD2 HIS A   4      18.385  41.188 109.985  0.00  0.00    +0.115 A 
ENDBRANCH  32  33
ENDBRANCH  29  32
ENDBRANCH  26  29
ENDBRANCH   1  25
BRANCH   1  38
ATOM     38  CB  TRP A   3      21.329  44.839 106.972  0.00  0.00    +0.057 C 
BRANCH  38  39
ATOM     39  CG  TRP A   3      20.196  43.903 106.765  0.00  0.00    -0.002 A 
ATOM     40  CD2 TRP A   3      18.803  44.247 106.791  0.00  0.00    +0.013 A 
ATOM     41  CE3 TRP A   3      18.107  45.464 106.895  0.00  0.00    +0.001 A 
ATOM     42  CZ3 TRP A   3      16.696  45.437 106.910  0.00  0.00    +0.000 A 
ATOM     43  CH2 TRP A   3      16.001  44.221 106.821  0.00  0.00    +0.001 A 
ATOM     44  CZ2 TRP A   3      16.662  43.016 106.711  0.00  0.00    +0.017 A 
ATOM     45  CE2 TRP A   3      18.065  43.041 106.698  0.00  0.00    +0.056 A 
ATOM     46  NE1 TRP A   3      18.965  42.007 106.608  0.00  0.00    -0.352 N 
ATOM     47  HE1 TRP A   3      18.724  40.999 106.525  0.00  0.00    +0.166 HD
ATOM     48  CD1 TRP A   3      20.252  42.532 106.647  0.00  0.00    +0.068 A 
ENDBRANCH  38  39
ENDBRANCH   1  38
TORSDOF 17
REMARK  Name = ../refined-set-2016/1ogg/1ogg_pocket.pdb
REMARK  251 active torsions:
REMARK  status: ('A' for Active; 'I' for Inactive)
REMARK    1  A    between atoms: _1  and  _3
REMARK    2  A    between atoms: _3  and  _4
REMARK    3  A    between atoms: _3  and  _6
REMARK    4  A    between atoms: _6  and  _7
REMARK    5  A    between atoms: _10  and  _12
REMARK    6  A    between atoms: _12  and  _13
REMARK    7  A    between atoms: _15  and  _17
REMARK    8  A    between atoms: _17  and  _18
REMARK    9  A    between atoms: _17  and  _20
REMARK   10  A    between atoms: _20  and  _21
REMARK   11  A    between atoms: _26  and  _27
REMARK   12  A    between atoms: _29  and  _31
REMARK   13  A    between atoms: _31  and  _32
REMARK   14  A    between atoms: _31  and  _34
REMARK   15  A    between atoms: _34  and  _35
REMARK   16  A    between atoms: _40  and  _41
REMARK   17  A    between atoms: _43  and  _45
REMARK   18  A    between atoms: _45  and  _46
REMARK   19  A    between atoms: _45  and  _48
REMARK   20  A    between atoms: _48  and  _49
REMARK   21  A    between atoms: _55  and  _57
REMARK   22  A    between atoms: _57  and  _58
REMARK   23  A    between atoms: _57  and  _60
REMARK   24  A    between atoms: _60  and  _61
REMARK   25  A    between atoms: _65  and  _66
REMARK   26  A    between atoms: _71  and  _73
REMARK   27  A    between atoms: _73  and  _74
REMARK   28  A    between atoms: _73  and  _76
REMARK   29  A    between atoms: _76  and  _77
REMARK   30  A    between atoms: _80  and  _82
REMARK   31  A    between atoms: _82  and  _83
REMARK   32  A    between atoms: _82  and  _85
REMARK   33  A    between atoms: _85  and  _86
REMARK   34  A    between atoms: _91  and  _93
REMARK   35  A    between atoms: _93  and  _94
REMARK   36  A    between atoms: _93  and  _96
REMARK   37  A    between atoms: _96  and  _97
REMARK   38  A    between atoms: _97  and  _98
REMARK   39  A    between atoms: _103  and  _105
REMARK   40  A    between atoms: _105  and  _106
REMARK   41  A    between atoms: _105  and  _108
REMARK   42  A    between atoms: _108  and  _109
REMARK   43  A    between atoms: _114  and  _116
REMARK   44  A    between atoms: _116  and  _117
REMARK   45  A    between atoms: _116  and  _119
REMARK   46  A    between atoms: _119  and  _120
REMARK   47  A    between atoms: _122  and  _124
REMARK   48  A    between atoms: _124  and  _125
REMARK   49  A    between atoms: _124  and  _127
REMARK   50  A    between atoms: _127  and  _128
REMARK   51  A    between atoms: _134  and  _136
REMARK   52  A    between atoms: _136  and  _137
REMARK   53  A    between atoms: _136  and  _139
REMARK   54  A    between atoms: _139  and  _140
REMARK   55  A    between atoms: _143  and  _145
REMARK   56  A    between atoms: _145  and  _146
REMARK   57  A    between atoms: _145  and  _148
REMARK   58  A    between atoms: _148  and  _149
REMARK   59  A    between atoms: _151  and  _153
REMARK   60  A    between atoms: _153  and  _154
REMARK   61  A    between atoms: _153  and  _156
REMARK   62  A    between atoms: _156  and  _157
REMARK   63  A    between atoms: _160  and  _162
REMARK   64  A    between atoms: _162  and  _163
REMARK   65  A    between atoms: _165  and  _167
REMARK   66  A    between atoms: _167  and  _168
REMARK   67  A    between atoms: _170  and  _172
REMARK   68  A    between atoms: _172  and  _173
REMARK   69  A    between atoms: _172  and  _175
REMARK   70  A    between atoms: _175  and  _176
REMARK   71  A    between atoms: _186  and  _188
REMARK   72  A    between atoms: _188  and  _189
REMARK   73  A    between atoms: _188  and  _191
REMARK   74  A    between atoms: _191  and  _192
REMARK   75  A    between atoms: _197  and  _198
REMARK   76  A    between atoms: _200  and  _202
REMARK   77  A    between atoms: _202  and  _203
REMARK   78  A    between atoms: _202  and  _205
REMARK   79  A    between atoms: _205  and  _206
REMARK   80  A    between atoms: _211  and  _212
REMARK   81  A    between atoms: _214  and  _216
REMARK   82  A    between atoms: _216  and  _217
REMARK   83  A    between atoms: _216  and  _219
REMARK   84  A    between atoms: _219  and  _220
REMARK   85  A    between atoms: _222  and  _224
REMARK   86  A    between atoms: _224  and  _225
REMARK   87  A    between atoms: _224  and  _227
REMARK   88  A    between atoms: _227  and  _228
REMARK   89  A    between atoms: _233  and  _235
REMARK   90  A    between atoms: _235  and  _236
REMARK   91  A    between atoms: _235  and  _238
REMARK   92  A    between atoms: _241  and  _243
REMARK   93  A    between atoms: _243  and  _244
REMARK   94  A    between atoms: _243  and  _246
REMARK   95  A    between atoms: _246  and  _247
REMARK   96  A    between atoms: _250  and  _252
REMARK   97  A    between atoms: _252  and  _253
REMARK   98  A    between atoms: _252  and  _255
REMARK   99  A    between atoms: _255  and  _256
REMARK  100  A    between atoms: _259  and  _261
REMARK  101  A    between atoms: _261  and  _262
REMARK  102  A    between atoms: _261  and  _264
REMARK  103  A    between atoms: _264  and  _265
REMARK  104  A    between atoms: _270  and  _272
REMARK  105  A    between atoms: _272  and  _273
REMARK  106  A    between atoms: _272  and  _275
REMARK  107  A    between atoms: _275  and  _276
REMARK  108  A    between atoms: _286  and  _288
REMARK  109  A    between atoms: _288  and  _289
REMARK  110  A    between atoms: _288  and  _291
REMARK  111  A    between atoms: _291  and  _292
REMARK  112  A    between atoms: _292  and  _293
REMARK  113  A    between atoms: _296  and  _298
REMARK  114  A    between atoms: _298  and  _299
REMARK  115  A    between atoms: _298  and  _301
REMARK  116  A    between atoms: _301  and  _302
REMARK  117  A    between atoms: _307  and  _308
REMARK  118  A    between atoms: _310  and  _312
REMARK  119  A    between atoms: _312  and  _313
REMARK  120  A    between atoms: _312  and  _315
REMARK  121  A    between atoms: _315  and  _316
REMARK  122  A    between atoms: _319  and  _321
REMARK  123  A    between atoms: _321  and  _322
REMARK  124  A    between atoms: _325  and  _327
REMARK  125  A    between atoms: _327  and  _328
REMARK  126  A    between atoms: _330  and  _332
REMARK  127  A    between atoms: _332  and  _333
REMARK  128  A    between atoms: _332  and  _335
REMARK  129  A    between atoms: _335  and  _336
REMARK  130  A    between atoms: _341  and  _343
REMARK  131  A    between atoms: _343  and  _344
REMARK  132  A    between atoms: _343  and  _346
REMARK  133  A    between atoms: _346  and  _347
REMARK  134  A    between atoms: _350  and  _352
REMARK  135  A    between atoms: _352  and  _353
REMARK  136  A    between atoms: _352  and  _355
REMARK  137  A    between atoms: _355  and  _356
REMARK  138  A    between atoms: _356  and  _357
REMARK  139  A    between atoms: _359  and  _361
REMARK  140  A    between atoms: _361  and  _362
REMARK  141  A    between atoms: _361  and  _364
REMARK  142  A    between atoms: _364  and  _365
REMARK  143  A    between atoms: _368  and  _370
REMARK  144  A    between atoms: _370  and  _371
REMARK  145  A    between atoms: _370  and  _373
REMARK  146  A    between atoms: _373  and  _374
REMARK  147  A    between atoms: _379  and  _380
REMARK  148  A    between atoms: _382  and  _384
REMARK  149  A    between atoms: _384  and  _385
REMARK  150  A    between atoms: _384  and  _387
REMARK  151  A    between atoms: _387  and  _388
REMARK  152  A    between atoms: _391  and  _393
REMARK  153  A    between atoms: _393  and  _394
REMARK  154  A    between atoms: _393  and  _396
REMARK  155  A    between atoms: _396  and  _397
REMARK  156  A    between atoms: _407  and  _409
REMARK  157  A    between atoms: _409  and  _410
REMARK  158  A    between atoms: _409  and  _412
REMARK  159  A    between atoms: _412  and  _413
REMARK  160  A    between atoms: _413  and  _414
REMARK  161  A    between atoms: _419  and  _421
REMARK  162  A    between atoms: _421  and  _422
REMARK  163  A    between atoms: _424  and  _426
REMARK  164  A    between atoms: _426  and  _427
REMARK  165  A    between atoms: _426  and  _429
REMARK  166  A    between atoms: _433  and  _434
REMARK  167  A    between atoms: _439  and  _441
REMARK  168  A    between atoms: _441  and  _442
REMARK  169  A    between atoms: _441  and  _444
REMARK  170  A    between atoms: _444  and  _445
REMARK  171  A    between atoms: _451  and  _453
REMARK  172  A    between atoms: _453  and  _454
REMARK  173  A    between atoms: _453  and  _456
REMARK  174  A    between atoms: _456  and  _457
REMARK  175  A    between atoms: _462  and  _463
REMARK  176  A    between atoms: _465  and  _467
REMARK  177  A    between atoms: _467  and  _468
REMARK  178  A    between atoms: _470  and  _472
REMARK  179  A    between atoms: _472  and  _473
REMARK  180  A    between atoms: _472  and  _475
REMARK  181  A    between atoms: _475  and  _476
REMARK  182  A    between atoms: _476  and  _477
REMARK  183  A    between atoms: _477  and  _478
REMARK  184  A    between atoms: _487  and  _489
REMARK  185  A    between atoms: _489  and  _490
REMARK  186  A    between atoms: _489  and  _492
REMARK  187  A    between atoms: _492  and  _493
REMARK  188  A    between atoms: _496  and  _498
REMARK  189  A    between atoms: _498  and  _499
REMARK  190  A    between atoms: _498  and  _501
REMARK  191  A    between atoms: _501  and  _502
REMARK  192  A    between atoms: _502  and  _503
REMARK  193  A    between atoms: _506  and  _508
REMARK  194  A    between atoms: _508  and  _509
REMARK  195  A    between atoms: _508  and  _511
REMARK  196  A    between atoms: _511  and  _512
REMARK  197  A    between atoms: _512  and  _513
REMARK  198  A    between atoms: _513  and  _514
REMARK  199  A    between atoms: _523  and  _525
REMARK  200  A    between atoms: _525  and  _526
REMARK  201  A    between atoms: _525  and  _528
REMARK  202  A    between atoms: _528  and  _529
REMARK  203  A    between atoms: _532  and  _534
REMARK  204  A    between atoms: _534  and  _535
REMARK  205  A    between atoms: _534  and  _537
REMARK  206  A    between atoms: _537  and  _538
REMARK  207  A    between atoms: _538  and  _539
REMARK  208  A    between atoms: _539  and  _540
REMARK  209  A    between atoms: _540  and  _541
REMARK  210  A    between atoms: _545  and  _547
REMARK  211  A    between atoms: _547  and  _548
REMARK  212  A    between atoms: _547  and  _550
REMARK  213  A    between atoms: _550  and  _551
REMARK  214  A    between atoms: _554  and  _556
REMARK  215  A    between atoms: _556  and  _557
REMARK  216  A    between atoms: _556  and  _559
REMARK  217  A    between atoms: _559  and  _560
REMARK  218  A    between atoms: _560  and  _561
REMARK  219  A    between atoms: _561  and  _562
REMARK  220  A    between atoms: _571  and  _573
REMARK  221  A    between atoms: _573  and  _574
REMARK  222  A    between atoms: _573  and  _576
REMARK  223  A    between atoms: _576  and  _577
REMARK  224  A    between atoms: _580  and  _582
REMARK  225  A    between atoms: _582  and  _583
REMARK  226  A    between atoms: _586  and  _588
REMARK  227  A    between atoms: _588  and  _589
REMARK  228  A    between atoms: _588  and  _591
REMARK  229  A    between atoms: _591  and  _592
REMARK  230  A    between atoms: _594  and  _596
REMARK  231  A    between atoms: _596  and  _597
REMARK  232  A    between atoms: _596  and  _599
REMARK  233  A    between atoms: _599  and  _600
REMARK  234  A    between atoms: _600  and  _601
REMARK  235  A    between atoms: _603  and  _605
REMARK  236  A    between atoms: _605  and  _606
REMARK  237  A    between atoms: _605  and  _608
REMARK  238  A    between atoms: _608  and  _609
REMARK  239  A    between atoms: _615  and  _617
REMARK  240  A    between atoms: _617  and  _618
REMARK  241  A    between atoms: _617  and  _620
REMARK  242  A    between atoms: _620  and  _621
REMARK  243  A    between atoms: _631  and  _633
REMARK  244  A    between atoms: _633  and  _634
REMARK  245  A    between atoms: _633  and  _636
REMARK  246  A    between atoms: _636  and  _637
REMARK  247  A    between atoms: _642  and  _644
REMARK  248  A    between atoms: _644  and  _645
REMARK  249  A    between atoms: _644  and  _647
REMARK  250  A    between atoms: _647  and  _648
REMARK  251  A    between atoms: _648  and  _649
REMARK                            x       y       z     vdW  Elec       q    Type
REMARK                         _______ _______ _______ _____ _____    ______ ____
ROOT
ATOM      1  CB  GLN A   1      22.001  39.072 112.330  0.00  0.00    +0.035 C 
ENDROOT
BRANCH   1   2
ATOM      2  CA  GLN A   1      21.635  39.015 113.820  0.00  0.00    +0.134 C 
BRANCH   2   3
ATOM      3  N   GLN A   1      20.642  40.046 114.128  0.00  0.00    -0.239 NA
ATOM      4  H   GLN A   1      20.783  41.015 113.779  0.00  0.00    +0.142 HD
ENDBRANCH   2   3
BRANCH   2   5
ATOM      5  C   GLN A   1      22.910  39.128 114.665  0.00  0.00    +0.224 C 
ATOM      6  O   GLN A   1      23.812  38.298 114.533  0.00  0.00    -0.287 OA
ENDBRANCH   2   5
ENDBRANCH   1   2
BRANCH   1   7
ATOM      7  CG  GLN A   1      20.786  38.945 111.427  0.00  0.00    +0.087 C 
BRANCH   7   8
ATOM      8  CD  GLN A   1      21.085  39.259 109.981  0.00  0.00    +0.219 C 
ATOM      9  OE1 GLN A   1      21.739  40.265 109.668  0.00  0.00    -0.275 OA
ATOM     10  NE2 GLN A   1      20.595  38.406 109.081  0.00  0.00    -0.329 N 
ATOM     11 HE21 GLN A   1      20.052  37.576 109.393  0.00  0.00    +0.145 HD
ATOM     12 HE22 GLN A   1      20.756  38.571 108.067  0.00  0.00    +0.145 HD
ENDBRANCH   7   8
ENDBRANCH   1   7
TORSDOF 5
REMARK  Name = ../refined-set-2016/1ogg/1ogg_pocket.pdb
REMARK  251 active torsions:
REMARK  status: ('A' for Active; 'I' for Inactive)
REMARK    1  A    between atoms: _1  and  _3
REMARK    2  A    between atoms: _3  and  _4
REMARK    3  A    between atoms: _3  and  _6
REMARK    4  A    between atoms: _6  and  _7
REMARK    5  A    between atoms: _10  and  _12
REMARK    6  A    between atoms: _12  and  _13
REMARK    7  A    between atoms: _15  and  _17
REMARK    8  A    between atoms: _17  and  _18
REMARK    9  A    between atoms: _17  and  _20
REMARK   10  A    between atoms: _20  and  _21
REMARK   11  A    between atoms: _26  and  _27
REMARK   12  A    between atoms: _29  and  _31
REMARK   13  A    between atoms: _31  and  _32
REMARK   14  A    between atoms: _31  and  _34
REMARK   15  A    between atoms: _34  and  _35
REMARK   16  A    between atoms: _40  and  _41
REMARK   17  A    between atoms: _43  and  _45
REMARK   18  A    between atoms: _45  and  _46
REMARK   19  A    between atoms: _45  and  _48
REMARK   20  A    between atoms: _48  and  _49
REMARK   21  A    between atoms: _55  and  _57
REMARK   22  A    between atoms: _57  and  _58
REMARK   23  A    between atoms: _57  and  _60
REMARK   24  A    between atoms: _60  and  _61
REMARK   25  A    between atoms: _65  and  _66
REMARK   26  A    between atoms: _71  and  _73
REMARK   27  A    between atoms: _73  and  _74
REMARK   28  A    between atoms: _73  and  _76
REMARK   29  A    between atoms: _76  and  _77
REMARK   30  A    between atoms: _80  and  _82
REMARK   31  A    between atoms: _82  and  _83
REMARK   32  A    between atoms: _82  and  _85
REMARK   33  A    between atoms: _85  and  _86
REMARK   34  A    between atoms: _91  and  _93
REMARK   35  A    between atoms: _93  and  _94
REMARK   36  A    between atoms: _93  and  _96
REMARK   37  A    between atoms: _96  and  _97
REMARK   38  A    between atoms: _97  and  _98
REMARK   39  A    between atoms: _103  and  _105
REMARK   40  A    between atoms: _105  and  _106
REMARK   41  A    between atoms: _105  and  _108
REMARK   42  A    between atoms: _108  and  _109
REMARK   43  A    between atoms: _114  and  _116
REMARK   44  A    between atoms: _116  and  _117
REMARK   45  A    between atoms: _116  and  _119
REMARK   46  A    between atoms: _119  and  _120
REMARK   47  A    between atoms: _122  and  _124
REMARK   48  A    between atoms: _124  and  _125
REMARK   49  A    between atoms: _124  and  _127
REMARK   50  A    between atoms: _127  and  _128
REMARK   51  A    between atoms: _134  and  _136
REMARK   52  A    between atoms: _136  and  _137
REMARK   53  A    between atoms: _136  and  _139
REMARK   54  A    between atoms: _139  and  _140
REMARK   55  A    between atoms: _143  and  _145
REMARK   56  A    between atoms: _145  and  _146
REMARK   57  A    between atoms: _145  and  _148
REMARK   58  A    between atoms: _148  and  _149
REMARK   59  A    between atoms: _151  and  _153
REMARK   60  A    between atoms: _153  and  _154
REMARK   61  A    between atoms: _153  and  _156
REMARK   62  A    between atoms: _156  and  _157
REMARK   63  A    between atoms: _160  and  _162
REMARK   64  A    between atoms: _162  and  _163
REMARK   65  A    between atoms: _165  and  _167
REMARK   66  A    between atoms: _167  and  _168
REMARK   67  A    between atoms: _170  and  _172
REMARK   68  A    between atoms: _172  and  _173
REMARK   69  A    between atoms: _172  and  _175
REMARK   70  A    between atoms: _175  and  _176
REMARK   71  A    between atoms: _186  and  _188
REMARK   72  A    between atoms: _188  and  _189
REMARK   73  A    between atoms: _188  and  _191
REMARK   74  A    between atoms: _191  and  _192
REMARK   75  A    between atoms: _197  and  _198
REMARK   76  A    between atoms: _200  and  _202
REMARK   77  A    between atoms: _202  and  _203
REMARK   78  A    between atoms: _202  and  _205
REMARK   79  A    between atoms: _205  and  _206
REMARK   80  A    between atoms: _211  and  _212
REMARK   81  A    between atoms: _214  and  _216
REMARK   82  A    between atoms: _216  and  _217
REMARK   83  A    between atoms: _216  and  _219
REMARK   84  A    between atoms: _219  and  _220
REMARK   85  A    between atoms: _222  and  _224
REMARK   86  A    between atoms: _224  and  _225
REMARK   87  A    between atoms: _224  and  _227
REMARK   88  A    between atoms: _227  and  _228
REMARK   89  A    between atoms: _233  and  _235
REMARK   90  A    between atoms: _235  and  _236
REMARK   91  A    between atoms: _235  and  _238
REMARK   92  A    between atoms: _241  and  _243
REMARK   93  A    between atoms: _243  and  _244
REMARK   94  A    between atoms: _243  and  _246
REMARK   95  A    between atoms: _246  and  _247
REMARK   96  A    between atoms: _250  and  _252
REMARK   97  A    between atoms: _252  and  _253
REMARK   98  A    between atoms: _252  and  _255
REMARK   99  A    between atoms: _255  and  _256
REMARK  100  A    between atoms: _259  and  _261
REMARK  101  A    between atoms: _261  and  _262
REMARK  102  A    between atoms: _261  and  _264
REMARK  103  A    between atoms: _264  and  _265
REMARK  104  A    between atoms: _270  and  _272
REMARK  105  A    between atoms: _272  and  _273
REMARK  106  A    between atoms: _272  and  _275
REMARK  107  A    between atoms: _275  and  _276
REMARK  108  A    between atoms: _286  and  _288
REMARK  109  A    between atoms: _288  and  _289
REMARK  110  A    between atoms: _288  and  _291
REMARK  111  A    between atoms: _291  and  _292
REMARK  112  A    between atoms: _292  and  _293
REMARK  113  A    between atoms: _296  and  _298
REMARK  114  A    between atoms: _298  and  _299
REMARK  115  A    between atoms: _298  and  _301
REMARK  116  A    between atoms: _301  and  _302
REMARK  117  A    between atoms: _307  and  _308
REMARK  118  A    between atoms: _310  and  _312
REMARK  119  A    between atoms: _312  and  _313
REMARK  120  A    between atoms: _312  and  _315
REMARK  121  A    between atoms: _315  and  _316
REMARK  122  A    between atoms: _319  and  _321
REMARK  123  A    between atoms: _321  and  _322
REMARK  124  A    between atoms: _325  and  _327
REMARK  125  A    between atoms: _327  and  _328
REMARK  126  A    between atoms: _330  and  _332
REMARK  127  A    between atoms: _332  and  _333
REMARK  128  A    between atoms: _332  and  _335
REMARK  129  A    between atoms: _335  and  _336
REMARK  130  A    between atoms: _341  and  _343
REMARK  131  A    between atoms: _343  and  _344
REMARK  132  A    between atoms: _343  and  _346
REMARK  133  A    between atoms: _346  and  _347
REMARK  134  A    between atoms: _350  and  _352
REMARK  135  A    between atoms: _352  and  _353
REMARK  136  A    between atoms: _352  and  _355
REMARK  137  A    between atoms: _355  and  _356
REMARK  138  A    between atoms: _356  and  _357
REMARK  139  A    between atoms: _359  and  _361
REMARK  140  A    between atoms: _361  and  _362
REMARK  141  A    between atoms: _361  and  _364
REMARK  142  A    between atoms: _364  and  _365
REMARK  143  A    between atoms: _368  and  _370
REMARK  144  A    between atoms: _370  and  _371
REMARK  145  A    between atoms: _370  and  _373
REMARK  146  A    between atoms: _373  and  _374
REMARK  147  A    between atoms: _379  and  _380
REMARK  148  A    between atoms: _382  and  _384
REMARK  149  A    between atoms: _384  and  _385
REMARK  150  A    between atoms: _384  and  _387
REMARK  151  A    between atoms: _387  and  _388
REMARK  152  A    between atoms: _391  and  _393
REMARK  153  A    between atoms: _393  and  _394
REMARK  154  A    between atoms: _393  and  _396
REMARK  155  A    between atoms: _396  and  _397
REMARK  156  A    between atoms: _407  and  _409
REMARK  157  A    between atoms: _409  and  _410
REMARK  158  A    between atoms: _409  and  _412
REMARK  159  A    between atoms: _412  and  _413
REMARK  160  A    between atoms: _413  and  _414
REMARK  161  A    between atoms: _419  and  _421
REMARK  162  A    between atoms: _421  and  _422
REMARK  163  A    between atoms: _424  and  _426
REMARK  164  A    between atoms: _426  and  _427
REMARK  165  A    between atoms: _426  and  _429
REMARK  166  A    between atoms: _433  and  _434
REMARK  167  A    between atoms: _439  and  _441
REMARK  168  A    between atoms: _441  and  _442
REMARK  169  A    between atoms: _441  and  _444
REMARK  170  A    between atoms: _444  and  _445
REMARK  171  A    between atoms: _451  and  _453
REMARK  172  A    between atoms: _453  and  _454
REMARK  173  A    between atoms: _453  and  _456
REMARK  174  A    between atoms: _456  and  _457
REMARK  175  A    between atoms: _462  and  _463
REMARK  176  A    between atoms: _465  and  _467
REMARK  177  A    between atoms: _467  and  _468
REMARK  178  A    between atoms: _470  and  _472
REMARK  179  A    between atoms: _472  and  _473
REMARK  180  A    between atoms: _472  and  _475
REMARK  181  A    between atoms: _475  and  _476
REMARK  182  A    between atoms: _476  and  _477
REMARK  183  A    between atoms: _477  and  _478
REMARK  184  A    between atoms: _487  and  _489
REMARK  185  A    between atoms: _489  and  _490
REMARK  186  A    between atoms: _489  and  _492
REMARK  187  A    between atoms: _492  and  _493
REMARK  188  A    between atoms: _496  and  _498
REMARK  189  A    between atoms: _498  and  _499
REMARK  190  A    between atoms: _498  and  _501
REMARK  191  A    between atoms: _501  and  _502
REMARK  192  A    between atoms: _502  and  _503
REMARK  193  A    between atoms: _506  and  _508
REMARK  194  A    between atoms: _508  and  _509
REMARK  195  A    between atoms: _508  and  _511
REMARK  196  A    between atoms: _511  and  _512
REMARK  197  A    between atoms: _512  and  _513
REMARK  198  A    between atoms: _513  and  _514
REMARK  199  A    between atoms: _523  and  _525
REMARK  200  A    between atoms: _525  and  _526
REMARK  201  A    between atoms: _525  and  _528
REMARK  202  A    between atoms: _528  and  _529
REMARK  203  A    between atoms: _532  and  _534
REMARK  204  A    between atoms: _534  and  _535
REMARK  205  A    between atoms: _534  and  _537
REMARK  206  A    between atoms: _537  and  _538
REMARK  207  A    between atoms: _538  and  _539
REMARK  208  A    between atoms: _539  and  _540
REMARK  209  A    between atoms: _540  and  _541
REMARK  210  A    between atoms: _545  and  _547
REMARK  211  A    between atoms: _547  and  _548
REMARK  212  A    between atoms: _547  and  _550
REMARK  213  A    between atoms: _550  and  _551
REMARK  214  A    between atoms: _554  and  _556
REMARK  215  A    between atoms: _556  and  _557
REMARK  216  A    between atoms: _556  and  _559
REMARK  217  A    between atoms: _559  and  _560
REMARK  218  A    between atoms: _560  and  _561
REMARK  219  A    between atoms: _561  and  _562
REMARK  220  A    between atoms: _571  and  _573
REMARK  221  A    between atoms: _573  and  _574
REMARK  222  A    between atoms: _573  and  _576
REMARK  223  A    between atoms: _576  and  _577
REMARK  224  A    between atoms: _580  and  _582
REMARK  225  A    between atoms: _582  and  _583
REMARK  226  A    between atoms: _586  and  _588
REMARK  227  A    between atoms: _588  and  _589
REMARK  228  A    between atoms: _588  and  _591
REMARK  229  A    between atoms: _591  and  _592
REMARK  230  A    between atoms: _594  and  _596
REMARK  231  A    between atoms: _596  and  _597
REMARK  232  A    between atoms: _596  and  _599
REMARK  233  A    between atoms: _599  and  _600
REMARK  234  A    between atoms: _600  and  _601
REMARK  235  A    between atoms: _603  and  _605
REMARK  236  A    between atoms: _605  and  _606
REMARK  237  A    between atoms: _605  and  _608
REMARK  238  A    between atoms: _608  and  _609
REMARK  239  A    between atoms: _615  and  _617
REMARK  240  A    between atoms: _617  and  _618
REMARK  241  A    between atoms: _617  and  _620
REMARK  242  A    between atoms: _620  and  _621
REMARK  243  A    between atoms: _631  and  _633
REMARK  244  A    between atoms: _633  and  _634
REMARK  245  A    between atoms: _633  and  _636
REMARK  246  A    between atoms: _636  and  _637
REMARK  247  A    between atoms: _642  and  _644
REMARK  248  A    between atoms: _644  and  _645
REMARK  249  A    between atoms: _644  and  _647
REMARK  250  A    between atoms: _647  and  _648
REMARK  251  A    between atoms: _648  and  _649
REMARK                            x       y       z     vdW  Elec       q    Type
REMARK                         _______ _______ _______ _____ _____    ______ ____
ROOT
ATOM      1  O   HOH     1      14.921  37.651 113.317  0.00  0.00    +0.000 OA
ENDROOT
TORSDOF 0
REMARK  Name = ../refined-set-2016/1ogg/1ogg_pocket.pdb
REMARK  251 active torsions:
REMARK  status: ('A' for Active; 'I' for Inactive)
REMARK    1  A    between atoms: _1  and  _3
REMARK    2  A    between atoms: _3  and  _4
REMARK    3  A    between atoms: _3  and  _6
REMARK    4  A    between atoms: _6  and  _7
REMARK    5  A    between atoms: _10  and  _12
REMARK    6  A    between atoms: _12  and  _13
REMARK    7  A    between atoms: _15  and  _17
REMARK    8  A    between atoms: _17  and  _18
REMARK    9  A    between atoms: _17  and  _20
REMARK   10  A    between atoms: _20  and  _21
REMARK   11  A    between atoms: _26  and  _27
REMARK   12  A    between atoms: _29  and  _31
REMARK   13  A    between atoms: _31  and  _32
REMARK   14  A    between atoms: _31  and  _34
REMARK   15  A    between atoms: _34  and  _35
REMARK   16  A    between atoms: _40  and  _41
REMARK   17  A    between atoms: _43  and  _45
REMARK   18  A    between atoms: _45  and  _46
REMARK   19  A    between atoms: _45  and  _48
REMARK   20  A    between atoms: _48  and  _49
REMARK   21  A    between atoms: _55  and  _57
REMARK   22  A    between atoms: _57  and  _58
REMARK   23  A    between atoms: _57  and  _60
REMARK   24  A    between atoms: _60  and  _61
REMARK   25  A    between atoms: _65  and  _66
REMARK   26  A    between atoms: _71  and  _73
REMARK   27  A    between atoms: _73  and  _74
REMARK   28  A    between atoms: _73  and  _76
REMARK   29  A    between atoms: _76  and  _77
REMARK   30  A    between atoms: _80  and  _82
REMARK   31  A    between atoms: _82  and  _83
REMARK   32  A    between atoms: _82  and  _85
REMARK   33  A    between atoms: _85  and  _86
REMARK   34  A    between atoms: _91  and  _93
REMARK   35  A    between atoms: _93  and  _94
REMARK   36  A    between atoms: _93  and  _96
REMARK   37  A    between atoms: _96  and  _97
REMARK   38  A    between atoms: _97  and  _98
REMARK   39  A    between atoms: _103  and  _105
REMARK   40  A    between atoms: _105  and  _106
REMARK   41  A    between atoms: _105  and  _108
REMARK   42  A    between atoms: _108  and  _109
REMARK   43  A    between atoms: _114  and  _116
REMARK   44  A    between atoms: _116  and  _117
REMARK   45  A    between atoms: _116  and  _119
REMARK   46  A    between atoms: _119  and  _120
REMARK   47  A    between atoms: _122  and  _124
REMARK   48  A    between atoms: _124  and  _125
REMARK   49  A    between atoms: _124  and  _127
REMARK   50  A    between atoms: _127  and  _128
REMARK   51  A    between atoms: _134  and  _136
REMARK   52  A    between atoms: _136  and  _137
REMARK   53  A    between atoms: _136  and  _139
REMARK   54  A    between atoms: _139  and  _140
REMARK   55  A    between atoms: _143  and  _145
REMARK   56  A    between atoms: _145  and  _146
REMARK   57  A    between atoms: _145  and  _148
REMARK   58  A    between atoms: _148  and  _149
REMARK   59  A    between atoms: _151  and  _153
REMARK   60  A    between atoms: _153  and  _154
REMARK   61  A    between atoms: _153  and  _156
REMARK   62  A    between atoms: _156  and  _157
REMARK   63  A    between atoms: _160  and  _162
REMARK   64  A    between atoms: _162  and  _163
REMARK   65  A    between atoms: _165  and  _167
REMARK   66  A    between atoms: _167  and  _168
REMARK   67  A    between atoms: _170  and  _172
REMARK   68  A    between atoms: _172  and  _173
REMARK   69  A    between atoms: _172  and  _175
REMARK   70  A    between atoms: _175  and  _176
REMARK   71  A    between atoms: _186  and  _188
REMARK   72  A    between atoms: _188  and  _189
REMARK   73  A    between atoms: _188  and  _191
REMARK   74  A    between atoms: _191  and  _192
REMARK   75  A    between atoms: _197  and  _198
REMARK   76  A    between atoms: _200  and  _202
REMARK   77  A    between atoms: _202  and  _203
REMARK   78  A    between atoms: _202  and  _205
REMARK   79  A    between atoms: _205  and  _206
REMARK   80  A    between atoms: _211  and  _212
REMARK   81  A    between atoms: _214  and  _216
REMARK   82  A    between atoms: _216  and  _217
REMARK   83  A    between atoms: _216  and  _219
REMARK   84  A    between atoms: _219  and  _220
REMARK   85  A    between atoms: _222  and  _224
REMARK   86  A    between atoms: _224  and  _225
REMARK   87  A    between atoms: _224  and  _227
REMARK   88  A    between atoms: _227  and  _228
REMARK   89  A    between atoms: _233  and  _235
REMARK   90  A    between atoms: _235  and  _236
REMARK   91  A    between atoms: _235  and  _238
REMARK   92  A    between atoms: _241  and  _243
REMARK   93  A    between atoms: _243  and  _244
REMARK   94  A    between atoms: _243  and  _246
REMARK   95  A    between atoms: _246  and  _247
REMARK   96  A    between atoms: _250  and  _252
REMARK   97  A    between atoms: _252  and  _253
REMARK   98  A    between atoms: _252  and  _255
REMARK   99  A    between atoms: _255  and  _256
REMARK  100  A    between atoms: _259  and  _261
REMARK  101  A    between atoms: _261  and  _262
REMARK  102  A    between atoms: _261  and  _264
REMARK  103  A    between atoms: _264  and  _265
REMARK  104  A    between atoms: _270  and  _272
REMARK  105  A    between atoms: _272  and  _273
REMARK  106  A    between atoms: _272  and  _275
REMARK  107  A    between atoms: _275  and  _276
REMARK  108  A    between atoms: _286  and  _288
REMARK  109  A    between atoms: _288  and  _289
REMARK  110  A    between atoms: _288  and  _291
REMARK  111  A    between atoms: _291  and  _292
REMARK  112  A    between atoms: _292  and  _293
REMARK  113  A    between atoms: _296  and  _298
REMARK  114  A    between atoms: _298  and  _299
REMARK  115  A    between atoms: _298  and  _301
REMARK  116  A    between atoms: _301  and  _302
REMARK  117  A    between atoms: _307  and  _308
REMARK  118  A    between atoms: _310  and  _312
REMARK  119  A    between atoms: _312  and  _313
REMARK  120  A    between atoms: _312  and  _315
REMARK  121  A    between atoms: _315  and  _316
REMARK  122  A    between atoms: _319  and  _321
REMARK  123  A    between atoms: _321  and  _322
REMARK  124  A    between atoms: _325  and  _327
REMARK  125  A    between atoms: _327  and  _328
REMARK  126  A    between atoms: _330  and  _332
REMARK  127  A    between atoms: _332  and  _333
REMARK  128  A    between atoms: _332  and  _335
REMARK  129  A    between atoms: _335  and  _336
REMARK  130  A    between atoms: _341  and  _343
REMARK  131  A    between atoms: _343  and  _344
REMARK  132  A    between atoms: _343  and  _346
REMARK  133  A    between atoms: _346  and  _347
REMARK  134  A    between atoms: _350  and  _352
REMARK  135  A    between atoms: _352  and  _353
REMARK  136  A    between atoms: _352  and  _355
REMARK  137  A    between atoms: _355  and  _356
REMARK  138  A    between atoms: _356  and  _357
REMARK  139  A    between atoms: _359  and  _361
REMARK  140  A    between atoms: _361  and  _362
REMARK  141  A    between atoms: _361  and  _364
REMARK  142  A    between atoms: _364  and  _365
REMARK  143  A    between atoms: _368  and  _370
REMARK  144  A    between atoms: _370  and  _371
REMARK  145  A    between atoms: _370  and  _373
REMARK  146  A    between atoms: _373  and  _374
REMARK  147  A    between atoms: _379  and  _380
REMARK  148  A    between atoms: _382  and  _384
REMARK  149  A    between atoms: _384  and  _385
REMARK  150  A    between atoms: _384  and  _387
REMARK  151  A    between atoms: _387  and  _388
REMARK  152  A    between atoms: _391  and  _393
REMARK  153  A    between atoms: _393  and  _394
REMARK  154  A    between atoms: _393  and  _396
REMARK  155  A    between atoms: _396  and  _397
REMARK  156  A    between atoms: _407  and  _409
REMARK  157  A    between atoms: _409  and  _410
REMARK  158  A    between atoms: _409  and  _412
REMARK  159  A    between atoms: _412  and  _413
REMARK  160  A    between atoms: _413  and  _414
REMARK  161  A    between atoms: _419  and  _421
REMARK  162  A    between atoms: _421  and  _422
REMARK  163  A    between atoms: _424  and  _426
REMARK  164  A    between atoms: _426  and  _427
REMARK  165  A    between atoms: _426  and  _429
REMARK  166  A    between atoms: _433  and  _434
REMARK  167  A    between atoms: _439  and  _441
REMARK  168  A    between atoms: _441  and  _442
REMARK  169  A    between atoms: _441  and  _444
REMARK  170  A    between atoms: _444  and  _445
REMARK  171  A    between atoms: _451  and  _453
REMARK  172  A    between atoms: _453  and  _454
REMARK  173  A    between atoms: _453  and  _456
REMARK  174  A    between atoms: _456  and  _457
REMARK  175  A    between atoms: _462  and  _463
REMARK  176  A    between atoms: _465  and  _467
REMARK  177  A    between atoms: _467  and  _468
REMARK  178  A    between atoms: _470  and  _472
REMARK  179  A    between atoms: _472  and  _473
REMARK  180  A    between atoms: _472  and  _475
REMARK  181  A    between atoms: _475  and  _476
REMARK  182  A    between atoms: _476  and  _477
REMARK  183  A    between atoms: _477  and  _478
REMARK  184  A    between atoms: _487  and  _489
REMARK  185  A    between atoms: _489  and  _490
REMARK  186  A    between atoms: _489  and  _492
REMARK  187  A    between atoms: _492  and  _493
REMARK  188  A    between atoms: _496  and  _498
REMARK  189  A    between atoms: _498  and  _499
REMARK  190  A    between atoms: _498  and  _501
REMARK  191  A    between atoms: _501  and  _502
REMARK  192  A    between atoms: _502  and  _503
REMARK  193  A    between atoms: _506  and  _508
REMARK  194  A    between atoms: _508  and  _509
REMARK  195  A    between atoms: _508  and  _511
REMARK  196  A    between atoms: _511  and  _512
REMARK  197  A    between atoms: _512  and  _513
REMARK  198  A    between atoms: _513  and  _514
REMARK  199  A    between atoms: _523  and  _525
REMARK  200  A    between atoms: _525  and  _526
REMARK  201  A    between atoms: _525  and  _528
REMARK  202  A    between atoms: _528  and  _529
REMARK  203  A    between atoms: _532  and  _534
REMARK  204  A    between atoms: _534  and  _535
REMARK  205  A    between atoms: _534  and  _537
REMARK  206  A    between atoms: _537  and  _538
REMARK  207  A    between atoms: _538  and  _539
REMARK  208  A    between atoms: _539  and  _540
REMARK  209  A    between atoms: _540  and  _541
REMARK  210  A    between atoms: _545  and  _547
REMARK  211  A    between atoms: _547  and  _548
REMARK  212  A    between atoms: _547  and  _550
REMARK  213  A    between atoms: _550  and  _551
REMARK  214  A    between atoms: _554  and  _556
REMARK  215  A    between atoms: _556  and  _557
REMARK  216  A    between atoms: _556  and  _559
REMARK  217  A    between atoms: _559  and  _560
REMARK  218  A    between atoms: _560  and  _561
REMARK  219  A    between atoms: _561  and  _562
REMARK  220  A    between atoms: _571  and  _573
REMARK  221  A    between atoms: _573  and  _574
REMARK  222  A    between atoms: _573  and  _576
REMARK  223  A    between atoms: _576  and  _577
REMARK  224  A    between atoms: _580  and  _582
REMARK  225  A    between atoms: _582  and  _583
REMARK  226  A    between atoms: _586  and  _588
REMARK  227  A    between atoms: _588  and  _589
REMARK  228  A    between atoms: _588  and  _591
REMARK  229  A    between atoms: _591  and  _592
REMARK  230  A    between atoms: _594  and  _596
REMARK  231  A    between atoms: _596  and  _597
REMARK  232  A    between atoms: _596  and  _599
REMARK  233  A    between atoms: _599  and  _600
REMARK  234  A    between atoms: _600  and  _601
REMARK  235  A    between atoms: _603  and  _605
REMARK  236  A    between atoms: _605  and  _606
REMARK  237  A    between atoms: _605  and  _608
REMARK  238  A    between atoms: _608  and  _609
REMARK  239  A    between atoms: _615  and  _617
REMARK  240  A    between atoms: _617  and  _618
REMARK  241  A    between atoms: _617  and  _620
REMARK  242  A    between atoms: _620  and  _621
REMARK  243  A    between atoms: _631  and  _633
REMARK  244  A    between atoms: _633  and  _634
REMARK  245  A    between atoms: _633  and  _636
REMARK  246  A    between atoms: _636  and  _637
REMARK  247  A    between atoms: _642  and  _644
REMARK  248  A    between atoms: _644  and  _645
REMARK  249  A    between atoms: _644  and  _647
REMARK  250  A    between atoms: _647  and  _648
REMARK  251  A    between atoms: _648  and  _649
REMARK                            x       y       z     vdW  Elec       q    Type
REMARK                         _______ _______ _______ _____ _____    ______ ____
ROOT
ATOM      1  O   HOH     1       8.318  43.120 108.793  0.00  0.00    +0.000 OA
ENDROOT
TORSDOF 0
REMARK  Name = ../refined-set-2016/1ogg/1ogg_pocket.pdb
REMARK  251 active torsions:
REMARK  status: ('A' for Active; 'I' for Inactive)
REMARK    1  A    between atoms: _1  and  _3
REMARK    2  A    between atoms: _3  and  _4
REMARK    3  A    between atoms: _3  and  _6
REMARK    4  A    between atoms: _6  and  _7
REMARK    5  A    between atoms: _10  and  _12
REMARK    6  A    between atoms: _12  and  _13
REMARK    7  A    between atoms: _15  and  _17
REMARK    8  A    between atoms: _17  and  _18
REMARK    9  A    between atoms: _17  and  _20
REMARK   10  A    between atoms: _20  and  _21
REMARK   11  A    between atoms: _26  and  _27
REMARK   12  A    between atoms: _29  and  _31
REMARK   13  A    between atoms: _31  and  _32
REMARK   14  A    between atoms: _31  and  _34
REMARK   15  A    between atoms: _34  and  _35
REMARK   16  A    between atoms: _40  and  _41
REMARK   17  A    between atoms: _43  and  _45
REMARK   18  A    between atoms: _45  and  _46
REMARK   19  A    between atoms: _45  and  _48
REMARK   20  A    between atoms: _48  and  _49
REMARK   21  A    between atoms: _55  and  _57
REMARK   22  A    between atoms: _57  and  _58
REMARK   23  A    between atoms: _57  and  _60
REMARK   24  A    between atoms: _60  and  _61
REMARK   25  A    between atoms: _65  and  _66
REMARK   26  A    between atoms: _71  and  _73
REMARK   27  A    between atoms: _73  and  _74
REMARK   28  A    between atoms: _73  and  _76
REMARK   29  A    between atoms: _76  and  _77
REMARK   30  A    between atoms: _80  and  _82
REMARK   31  A    between atoms: _82  and  _83
REMARK   32  A    between atoms: _82  and  _85
REMARK   33  A    between atoms: _85  and  _86
REMARK   34  A    between atoms: _91  and  _93
REMARK   35  A    between atoms: _93  and  _94
REMARK   36  A    between atoms: _93  and  _96
REMARK   37  A    between atoms: _96  and  _97
REMARK   38  A    between atoms: _97  and  _98
REMARK   39  A    between atoms: _103  and  _105
REMARK   40  A    between atoms: _105  and  _106
REMARK   41  A    between atoms: _105  and  _108
REMARK   42  A    between atoms: _108  and  _109
REMARK   43  A    between atoms: _114  and  _116
REMARK   44  A    between atoms: _116  and  _117
REMARK   45  A    between atoms: _116  and  _119
REMARK   46  A    between atoms: _119  and  _120
REMARK   47  A    between atoms: _122  and  _124
REMARK   48  A    between atoms: _124  and  _125
REMARK   49  A    between atoms: _124  and  _127
REMARK   50  A    between atoms: _127  and  _128
REMARK   51  A    between atoms: _134  and  _136
REMARK   52  A    between atoms: _136  and  _137
REMARK   53  A    between atoms: _136  and  _139
REMARK   54  A    between atoms: _139  and  _140
REMARK   55  A    between atoms: _143  and  _145
REMARK   56  A    between atoms: _145  and  _146
REMARK   57  A    between atoms: _145  and  _148
REMARK   58  A    between atoms: _148  and  _149
REMARK   59  A    between atoms: _151  and  _153
REMARK   60  A    between atoms: _153  and  _154
REMARK   61  A    between atoms: _153  and  _156
REMARK   62  A    between atoms: _156  and  _157
REMARK   63  A    between atoms: _160  and  _162
REMARK   64  A    between atoms: _162  and  _163
REMARK   65  A    between atoms: _165  and  _167
REMARK   66  A    between atoms: _167  and  _168
REMARK   67  A    between atoms: _170  and  _172
REMARK   68  A    between atoms: _172  and  _173
REMARK   69  A    between atoms: _172  and  _175
REMARK   70  A    between atoms: _175  and  _176
REMARK   71  A    between atoms: _186  and  _188
REMARK   72  A    between atoms: _188  and  _189
REMARK   73  A    between atoms: _188  and  _191
REMARK   74  A    between atoms: _191  and  _192
REMARK   75  A    between atoms: _197  and  _198
REMARK   76  A    between atoms: _200  and  _202
REMARK   77  A    between atoms: _202  and  _203
REMARK   78  A    between atoms: _202  and  _205
REMARK   79  A    between atoms: _205  and  _206
REMARK   80  A    between atoms: _211  and  _212
REMARK   81  A    between atoms: _214  and  _216
REMARK   82  A    between atoms: _216  and  _217
REMARK   83  A    between atoms: _216  and  _219
REMARK   84  A    between atoms: _219  and  _220
REMARK   85  A    between atoms: _222  and  _224
REMARK   86  A    between atoms: _224  and  _225
REMARK   87  A    between atoms: _224  and  _227
REMARK   88  A    between atoms: _227  and  _228
REMARK   89  A    between atoms: _233  and  _235
REMARK   90  A    between atoms: _235  and  _236
REMARK   91  A    between atoms: _235  and  _238
REMARK   92  A    between atoms: _241  and  _243
REMARK   93  A    between atoms: _243  and  _244
REMARK   94  A    between atoms: _243  and  _246
REMARK   95  A    between atoms: _246  and  _247
REMARK   96  A    between atoms: _250  and  _252
REMARK   97  A    between atoms: _252  and  _253
REMARK   98  A    between atoms: _252  and  _255
REMARK   99  A    between atoms: _255  and  _256
REMARK  100  A    between atoms: _259  and  _261
REMARK  101  A    between atoms: _261  and  _262
REMARK  102  A    between atoms: _261  and  _264
REMARK  103  A    between atoms: _264  and  _265
REMARK  104  A    between atoms: _270  and  _272
REMARK  105  A    between atoms: _272  and  _273
REMARK  106  A    between atoms: _272  and  _275
REMARK  107  A    between atoms: _275  and  _276
REMARK  108  A    between atoms: _286  and  _288
REMARK  109  A    between atoms: _288  and  _289
REMARK  110  A    between atoms: _288  and  _291
REMARK  111  A    between atoms: _291  and  _292
REMARK  112  A    between atoms: _292  and  _293
REMARK  113  A    between atoms: _296  and  _298
REMARK  114  A    between atoms: _298  and  _299
REMARK  115  A    between atoms: _298  and  _301
REMARK  116  A    between atoms: _301  and  _302
REMARK  117  A    between atoms: _307  and  _308
REMARK  118  A    between atoms: _310  and  _312
REMARK  119  A    between atoms: _312  and  _313
REMARK  120  A    between atoms: _312  and  _315
REMARK  121  A    between atoms: _315  and  _316
REMARK  122  A    between atoms: _319  and  _321
REMARK  123  A    between atoms: _321  and  _322
REMARK  124  A    between atoms: _325  and  _327
REMARK  125  A    between atoms: _327  and  _328
REMARK  126  A    between atoms: _330  and  _332
REMARK  127  A    between atoms: _332  and  _333
REMARK  128  A    between atoms: _332  and  _335
REMARK  129  A    between atoms: _335  and  _336
REMARK  130  A    between atoms: _341  and  _343
REMARK  131  A    between atoms: _343  and  _344
REMARK  132  A    between atoms: _343  and  _346
REMARK  133  A    between atoms: _346  and  _347
REMARK  134  A    between atoms: _350  and  _352
REMARK  135  A    between atoms: _352  and  _353
REMARK  136  A    between atoms: _352  and  _355
REMARK  137  A    between atoms: _355  and  _356
REMARK  138  A    between atoms: _356  and  _357
REMARK  139  A    between atoms: _359  and  _361
REMARK  140  A    between atoms: _361  and  _362
REMARK  141  A    between atoms: _361  and  _364
REMARK  142  A    between atoms: _364  and  _365
REMARK  143  A    between atoms: _368  and  _370
REMARK  144  A    between atoms: _370  and  _371
REMARK  145  A    between atoms: _370  and  _373
REMARK  146  A    between atoms: _373  and  _374
REMARK  147  A    between atoms: _379  and  _380
REMARK  148  A    between atoms: _382  and  _384
REMARK  149  A    between atoms: _384  and  _385
REMARK  150  A    between atoms: _384  and  _387
REMARK  151  A    between atoms: _387  and  _388
REMARK  152  A    between atoms: _391  and  _393
REMARK  153  A    between atoms: _393  and  _394
REMARK  154  A    between atoms: _393  and  _396
REMARK  155  A    between atoms: _396  and  _397
REMARK  156  A    between atoms: _407  and  _409
REMARK  157  A    between atoms: _409  and  _410
REMARK  158  A    between atoms: _409  and  _412
REMARK  159  A    between atoms: _412  and  _413
REMARK  160  A    between atoms: _413  and  _414
REMARK  161  A    between atoms: _419  and  _421
REMARK  162  A    between atoms: _421  and  _422
REMARK  163  A    between atoms: _424  and  _426
REMARK  164  A    between atoms: _426  and  _427
REMARK  165  A    between atoms: _426  and  _429
REMARK  166  A    between atoms: _433  and  _434
REMARK  167  A    between atoms: _439  and  _441
REMARK  168  A    between atoms: _441  and  _442
REMARK  169  A    between atoms: _441  and  _444
REMARK  170  A    between atoms: _444  and  _445
REMARK  171  A    between atoms: _451  and  _453
REMARK  172  A    between atoms: _453  and  _454
REMARK  173  A    between atoms: _453  and  _456
REMARK  174  A    between atoms: _456  and  _457
REMARK  175  A    between atoms: _462  and  _463
REMARK  176  A    between atoms: _465  and  _467
REMARK  177  A    between atoms: _467  and  _468
REMARK  178  A    between atoms: _470  and  _472
REMARK  179  A    between atoms: _472  and  _473
REMARK  180  A    between atoms: _472  and  _475
REMARK  181  A    between atoms: _475  and  _476
REMARK  182  A    between atoms: _476  and  _477
REMARK  183  A    between atoms: _477  and  _478
REMARK  184  A    between atoms: _487  and  _489
REMARK  185  A    between atoms: _489  and  _490
REMARK  186  A    between atoms: _489  and  _492
REMARK  187  A    between atoms: _492  and  _493
REMARK  188  A    between atoms: _496  and  _498
REMARK  189  A    between atoms: _498  and  _499
REMARK  190  A    between atoms: _498  and  _501
REMARK  191  A    between atoms: _501  and  _502
REMARK  192  A    between atoms: _502  and  _503
REMARK  193  A    between atoms: _506  and  _508
REMARK  194  A    between atoms: _508  and  _509
REMARK  195  A    between atoms: _508  and  _511
REMARK  196  A    between atoms: _511  and  _512
REMARK  197  A    between atoms: _512  and  _513
REMARK  198  A    between atoms: _513  and  _514
REMARK  199  A    between atoms: _523  and  _525
REMARK  200  A    between atoms: _525  and  _526
REMARK  201  A    between atoms: _525  and  _528
REMARK  202  A    between atoms: _528  and  _529
REMARK  203  A    between atoms: _532  and  _534
REMARK  204  A    between atoms: _534  and  _535
REMARK  205  A    between atoms: _534  and  _537
REMARK  206  A    between atoms: _537  and  _538
REMARK  207  A    between atoms: _538  and  _539
REMARK  208  A    between atoms: _539  and  _540
REMARK  209  A    between atoms: _540  and  _541
REMARK  210  A    between atoms: _545  and  _547
REMARK  211  A    between atoms: _547  and  _548
REMARK  212  A    between atoms: _547  and  _550
REMARK  213  A    between atoms: _550  and  _551
REMARK  214  A    between atoms: _554  and  _556
REMARK  215  A    between atoms: _556  and  _557
REMARK  216  A    between atoms: _556  and  _559
REMARK  217  A    between atoms: _559  and  _560
REMARK  218  A    between atoms: _560  and  _561
REMARK  219  A    between atoms: _561  and  _562
REMARK  220  A    between atoms: _571  and  _573
REMARK  221  A    between atoms: _573  and  _574
REMARK  222  A    between atoms: _573  and  _576
REMARK  223  A    between atoms: _576  and  _577
REMARK  224  A    between atoms: _580  and  _582
REMARK  225  A    between atoms: _582  and  _583
REMARK  226  A    between atoms: _586  and  _588
REMARK  227  A    between atoms: _588  and  _589
REMARK  228  A    between atoms: _588  and  _591
REMARK  229  A    between atoms: _591  and  _592
REMARK  230  A    between atoms: _594  and  _596
REMARK  231  A    between atoms: _596  and  _597
REMARK  232  A    between atoms: _596  and  _599
REMARK  233  A    between atoms: _599  and  _600
REMARK  234  A    between atoms: _600  and  _601
REMARK  235  A    between atoms: _603  and  _605
REMARK  236  A    between atoms: _605  and  _606
REMARK  237  A    between atoms: _605  and  _608
REMARK  238  A    between atoms: _608  and  _609
REMARK  239  A    between atoms: _615  and  _617
REMARK  240  A    between atoms: _617  and  _618
REMARK  241  A    between atoms: _617  and  _620
REMARK  242  A    between atoms: _620  and  _621
REMARK  243  A    between atoms: _631  and  _633
REMARK  244  A    between atoms: _633  and  _634
REMARK  245  A    between atoms: _633  and  _636
REMARK  246  A    between atoms: _636  and  _637
REMARK  247  A    between atoms: _642  and  _644
REMARK  248  A    between atoms: _644  and  _645
REMARK  249  A    between atoms: _644  and  _647
REMARK  250  A    between atoms: _647  and  _648
REMARK  251  A    between atoms: _648  and  _649
REMARK                            x       y       z     vdW  Elec       q    Type
REMARK                         _______ _______ _______ _____ _____    ______ ____
ROOT
ATOM      1  O   HOH     1       7.477  39.550 106.737  0.00  0.00    +0.000 OA
ENDROOT
TORSDOF 0
REMARK  Name = ../refined-set-2016/1ogg/1ogg_pocket.pdb
REMARK  251 active torsions:
REMARK  status: ('A' for Active; 'I' for Inactive)
REMARK    1  A    between atoms: _1  and  _3
REMARK    2  A    between atoms: _3  and  _4
REMARK    3  A    between atoms: _3  and  _6
REMARK    4  A    between atoms: _6  and  _7
REMARK    5  A    between atoms: _10  and  _12
REMARK    6  A    between atoms: _12  and  _13
REMARK    7  A    between atoms: _15  and  _17
REMARK    8  A    between atoms: _17  and  _18
REMARK    9  A    between atoms: _17  and  _20
REMARK   10  A    between atoms: _20  and  _21
REMARK   11  A    between atoms: _26  and  _27
REMARK   12  A    between atoms: _29  and  _31
REMARK   13  A    between atoms: _31  and  _32
REMARK   14  A    between atoms: _31  and  _34
REMARK   15  A    between atoms: _34  and  _35
REMARK   16  A    between atoms: _40  and  _41
REMARK   17  A    between atoms: _43  and  _45
REMARK   18  A    between atoms: _45  and  _46
REMARK   19  A    between atoms: _45  and  _48
REMARK   20  A    between atoms: _48  and  _49
REMARK   21  A    between atoms: _55  and  _57
REMARK   22  A    between atoms: _57  and  _58
REMARK   23  A    between atoms: _57  and  _60
REMARK   24  A    between atoms: _60  and  _61
REMARK   25  A    between atoms: _65  and  _66
REMARK   26  A    between atoms: _71  and  _73
REMARK   27  A    between atoms: _73  and  _74
REMARK   28  A    between atoms: _73  and  _76
REMARK   29  A    between atoms: _76  and  _77
REMARK   30  A    between atoms: _80  and  _82
REMARK   31  A    between atoms: _82  and  _83
REMARK   32  A    between atoms: _82  and  _85
REMARK   33  A    between atoms: _85  and  _86
REMARK   34  A    between atoms: _91  and  _93
REMARK   35  A    between atoms: _93  and  _94
REMARK   36  A    between atoms: _93  and  _96
REMARK   37  A    between atoms: _96  and  _97
REMARK   38  A    between atoms: _97  and  _98
REMARK   39  A    between atoms: _103  and  _105
REMARK   40  A    between atoms: _105  and  _106
REMARK   41  A    between atoms: _105  and  _108
REMARK   42  A    between atoms: _108  and  _109
REMARK   43  A    between atoms: _114  and  _116
REMARK   44  A    between atoms: _116  and  _117
REMARK   45  A    between atoms: _116  and  _119
REMARK   46  A    between atoms: _119  and  _120
REMARK   47  A    between atoms: _122  and  _124
REMARK   48  A    between atoms: _124  and  _125
REMARK   49  A    between atoms: _124  and  _127
REMARK   50  A    between atoms: _127  and  _128
REMARK   51  A    between atoms: _134  and  _136
REMARK   52  A    between atoms: _136  and  _137
REMARK   53  A    between atoms: _136  and  _139
REMARK   54  A    between atoms: _139  and  _140
REMARK   55  A    between atoms: _143  and  _145
REMARK   56  A    between atoms: _145  and  _146
REMARK   57  A    between atoms: _145  and  _148
REMARK   58  A    between atoms: _148  and  _149
REMARK   59  A    between atoms: _151  and  _153
REMARK   60  A    between atoms: _153  and  _154
REMARK   61  A    between atoms: _153  and  _156
REMARK   62  A    between atoms: _156  and  _157
REMARK   63  A    between atoms: _160  and  _162
REMARK   64  A    between atoms: _162  and  _163
REMARK   65  A    between atoms: _165  and  _167
REMARK   66  A    between atoms: _167  and  _168
REMARK   67  A    between atoms: _170  and  _172
REMARK   68  A    between atoms: _172  and  _173
REMARK   69  A    between atoms: _172  and  _175
REMARK   70  A    between atoms: _175  and  _176
REMARK   71  A    between atoms: _186  and  _188
REMARK   72  A    between atoms: _188  and  _189
REMARK   73  A    between atoms: _188  and  _191
REMARK   74  A    between atoms: _191  and  _192
REMARK   75  A    between atoms: _197  and  _198
REMARK   76  A    between atoms: _200  and  _202
REMARK   77  A    between atoms: _202  and  _203
REMARK   78  A    between atoms: _202  and  _205
REMARK   79  A    between atoms: _205  and  _206
REMARK   80  A    between atoms: _211  and  _212
REMARK   81  A    between atoms: _214  and  _216
REMARK   82  A    between atoms: _216  and  _217
REMARK   83  A    between atoms: _216  and  _219
REMARK   84  A    between atoms: _219  and  _220
REMARK   85  A    between atoms: _222  and  _224
REMARK   86  A    between atoms: _224  and  _225
REMARK   87  A    between atoms: _224  and  _227
REMARK   88  A    between atoms: _227  and  _228
REMARK   89  A    between atoms: _233  and  _235
REMARK   90  A    between atoms: _235  and  _236
REMARK   91  A    between atoms: _235  and  _238
REMARK   92  A    between atoms: _241  and  _243
REMARK   93  A    between atoms: _243  and  _244
REMARK   94  A    between atoms: _243  and  _246
REMARK   95  A    between atoms: _246  and  _247
REMARK   96  A    between atoms: _250  and  _252
REMARK   97  A    between atoms: _252  and  _253
REMARK   98  A    between atoms: _252  and  _255
REMARK   99  A    between atoms: _255  and  _256
REMARK  100  A    between atoms: _259  and  _261
REMARK  101  A    between atoms: _261  and  _262
REMARK  102  A    between atoms: _261  and  _264
REMARK  103  A    between atoms: _264  and  _265
REMARK  104  A    between atoms: _270  and  _272
REMARK  105  A    between atoms: _272  and  _273
REMARK  106  A    between atoms: _272  and  _275
REMARK  107  A    between atoms: _275  and  _276
REMARK  108  A    between atoms: _286  and  _288
REMARK  109  A    between atoms: _288  and  _289
REMARK  110  A    between atoms: _288  and  _291
REMARK  111  A    between atoms: _291  and  _292
REMARK  112  A    between atoms: _292  and  _293
REMARK  113  A    between atoms: _296  and  _298
REMARK  114  A    between atoms: _298  and  _299
REMARK  115  A    between atoms: _298  and  _301
REMARK  116  A    between atoms: _301  and  _302
REMARK  117  A    between atoms: _307  and  _308
REMARK  118  A    between atoms: _310  and  _312
REMARK  119  A    between atoms: _312  and  _313
REMARK  120  A    between atoms: _312  and  _315
REMARK  121  A    between atoms: _315  and  _316
REMARK  122  A    between atoms: _319  and  _321
REMARK  123  A    between atoms: _321  and  _322
REMARK  124  A    between atoms: _325  and  _327
REMARK  125  A    between atoms: _327  and  _328
REMARK  126  A    between atoms: _330  and  _332
REMARK  127  A    between atoms: _332  and  _333
REMARK  128  A    between atoms: _332  and  _335
REMARK  129  A    between atoms: _335  and  _336
REMARK  130  A    between atoms: _341  and  _343
REMARK  131  A    between atoms: _343  and  _344
REMARK  132  A    between atoms: _343  and  _346
REMARK  133  A    between atoms: _346  and  _347
REMARK  134  A    between atoms: _350  and  _352
REMARK  135  A    between atoms: _352  and  _353
REMARK  136  A    between atoms: _352  and  _355
REMARK  137  A    between atoms: _355  and  _356
REMARK  138  A    between atoms: _356  and  _357
REMARK  139  A    between atoms: _359  and  _361
REMARK  140  A    between atoms: _361  and  _362
REMARK  141  A    between atoms: _361  and  _364
REMARK  142  A    between atoms: _364  and  _365
REMARK  143  A    between atoms: _368  and  _370
REMARK  144  A    between atoms: _370  and  _371
REMARK  145  A    between atoms: _370  and  _373
REMARK  146  A    between atoms: _373  and  _374
REMARK  147  A    between atoms: _379  and  _380
REMARK  148  A    between atoms: _382  and  _384
REMARK  149  A    between atoms: _384  and  _385
REMARK  150  A    between atoms: _384  and  _387
REMARK  151  A    between atoms: _387  and  _388
REMARK  152  A    between atoms: _391  and  _393
REMARK  153  A    between atoms: _393  and  _394
REMARK  154  A    between atoms: _393  and  _396
REMARK  155  A    between atoms: _396  and  _397
REMARK  156  A    between atoms: _407  and  _409
REMARK  157  A    between atoms: _409  and  _410
REMARK  158  A    between atoms: _409  and  _412
REMARK  159  A    between atoms: _412  and  _413
REMARK  160  A    between atoms: _413  and  _414
REMARK  161  A    between atoms: _419  and  _421
REMARK  162  A    between atoms: _421  and  _422
REMARK  163  A    between atoms: _424  and  _426
REMARK  164  A    between atoms: _426  and  _427
REMARK  165  A    between atoms: _426  and  _429
REMARK  166  A    between atoms: _433  and  _434
REMARK  167  A    between atoms: _439  and  _441
REMARK  168  A    between atoms: _441  and  _442
REMARK  169  A    between atoms: _441  and  _444
REMARK  170  A    between atoms: _444  and  _445
REMARK  171  A    between atoms: _451  and  _453
REMARK  172  A    between atoms: _453  and  _454
REMARK  173  A    between atoms: _453  and  _456
REMARK  174  A    between atoms: _456  and  _457
REMARK  175  A    between atoms: _462  and  _463
REMARK  176  A    between atoms: _465  and  _467
REMARK  177  A    between atoms: _467  and  _468
REMARK  178  A    between atoms: _470  and  _472
REMARK  179  A    between atoms: _472  and  _473
REMARK  180  A    between atoms: _472  and  _475
REMARK  181  A    between atoms: _475  and  _476
REMARK  182  A    between atoms: _476  and  _477
REMARK  183  A    between atoms: _477  and  _478
REMARK  184  A    between atoms: _487  and  _489
REMARK  185  A    between atoms: _489  and  _490
REMARK  186  A    between atoms: _489  and  _492
REMARK  187  A    between atoms: _492  and  _493
REMARK  188  A    between atoms: _496  and  _498
REMARK  189  A    between atoms: _498  and  _499
REMARK  190  A    between atoms: _498  and  _501
REMARK  191  A    between atoms: _501  and  _502
REMARK  192  A    between atoms: _502  and  _503
REMARK  193  A    between atoms: _506  and  _508
REMARK  194  A    between atoms: _508  and  _509
REMARK  195  A    between atoms: _508  and  _511
REMARK  196  A    between atoms: _511  and  _512
REMARK  197  A    between atoms: _512  and  _513
REMARK  198  A    between atoms: _513  and  _514
REMARK  199  A    between atoms: _523  and  _525
REMARK  200  A    between atoms: _525  and  _526
REMARK  201  A    between atoms: _525  and  _528
REMARK  202  A    between atoms: _528  and  _529
REMARK  203  A    between atoms: _532  and  _534
REMARK  204  A    between atoms: _534  and  _535
REMARK  205  A    between atoms: _534  and  _537
REMARK  206  A    between atoms: _537  and  _538
REMARK  207  A    between atoms: _538  and  _539
REMARK  208  A    between atoms: _539  and  _540
REMARK  209  A    between atoms: _540  and  _541
REMARK  210  A    between atoms: _545  and  _547
REMARK  211  A    between atoms: _547  and  _548
REMARK  212  A    between atoms: _547  and  _550
REMARK  213  A    between atoms: _550  and  _551
REMARK  214  A    between atoms: _554  and  _556
REMARK  215  A    between atoms: _556  and  _557
REMARK  216  A    between atoms: _556  and  _559
REMARK  217  A    between atoms: _559  and  _560
REMARK  218  A    between atoms: _560  and  _561
REMARK  219  A    between atoms: _561  and  _562
REMARK  220  A    between atoms: _571  and  _573
REMARK  221  A    between atoms: _573  and  _574
REMARK  222  A    between atoms: _573  and  _576
REMARK  223  A    between atoms: _576  and  _577
REMARK  224  A    between atoms: _580  and  _582
REMARK  225  A    between atoms: _582  and  _583
REMARK  226  A    between atoms: _586  and  _588
REMARK  227  A    between atoms: _588  and  _589
REMARK  228  A    between atoms: _588  and  _591
REMARK  229  A    between atoms: _591  and  _592
REMARK  230  A    between atoms: _594  and  _596
REMARK  231  A    between atoms: _596  and  _597
REMARK  232  A    between atoms: _596  and  _599
REMARK  233  A    between atoms: _599  and  _600
REMARK  234  A    between atoms: _600  and  _601
REMARK  235  A    between atoms: _603  and  _605
REMARK  236  A    between atoms: _605  and  _606
REMARK  237  A    between atoms: _605  and  _608
REMARK  238  A    between atoms: _608  and  _609
REMARK  239  A    between atoms: _615  and  _617
REMARK  240  A    between atoms: _617  and  _618
REMARK  241  A    between atoms: _617  and  _620
REMARK  242  A    between atoms: _620  and  _621
REMARK  243  A    between atoms: _631  and  _633
REMARK  244  A    between atoms: _633  and  _634
REMARK  245  A    between atoms: _633  and  _636
REMARK  246  A    between atoms: _636  and  _637
REMARK  247  A    between atoms: _642  and  _644
REMARK  248  A    between atoms: _644  and  _645
REMARK  249  A    between atoms: _644  and  _647
REMARK  250  A    between atoms: _647  and  _648
REMARK  251  A    between atoms: _648  and  _649
REMARK                            x       y       z     vdW  Elec       q    Type
REMARK                         _______ _______ _______ _____ _____    ______ ____
ROOT
ATOM      1  O   HOH     1       9.762  33.310 111.465  0.00  0.00    +0.000 OA
ENDROOT
TORSDOF 0
REMARK  Name = ../refined-set-2016/1ogg/1ogg_pocket.pdb
REMARK  251 active torsions:
REMARK  status: ('A' for Active; 'I' for Inactive)
REMARK    1  A    between atoms: _1  and  _3
REMARK    2  A    between atoms: _3  and  _4
REMARK    3  A    between atoms: _3  and  _6
REMARK    4  A    between atoms: _6  and  _7
REMARK    5  A    between atoms: _10  and  _12
REMARK    6  A    between atoms: _12  and  _13
REMARK    7  A    between atoms: _15  and  _17
REMARK    8  A    between atoms: _17  and  _18
REMARK    9  A    between atoms: _17  and  _20
REMARK   10  A    between atoms: _20  and  _21
REMARK   11  A    between atoms: _26  and  _27
REMARK   12  A    between atoms: _29  and  _31
REMARK   13  A    between atoms: _31  and  _32
REMARK   14  A    between atoms: _31  and  _34
REMARK   15  A    between atoms: _34  and  _35
REMARK   16  A    between atoms: _40  and  _41
REMARK   17  A    between atoms: _43  and  _45
REMARK   18  A    between atoms: _45  and  _46
REMARK   19  A    between atoms: _45  and  _48
REMARK   20  A    between atoms: _48  and  _49
REMARK   21  A    between atoms: _55  and  _57
REMARK   22  A    between atoms: _57  and  _58
REMARK   23  A    between atoms: _57  and  _60
REMARK   24  A    between atoms: _60  and  _61
REMARK   25  A    between atoms: _65  and  _66
REMARK   26  A    between atoms: _71  and  _73
REMARK   27  A    between atoms: _73  and  _74
REMARK   28  A    between atoms: _73  and  _76
REMARK   29  A    between atoms: _76  and  _77
REMARK   30  A    between atoms: _80  and  _82
REMARK   31  A    between atoms: _82  and  _83
REMARK   32  A    between atoms: _82  and  _85
REMARK   33  A    between atoms: _85  and  _86
REMARK   34  A    between atoms: _91  and  _93
REMARK   35  A    between atoms: _93  and  _94
REMARK   36  A    between atoms: _93  and  _96
REMARK   37  A    between atoms: _96  and  _97
REMARK   38  A    between atoms: _97  and  _98
REMARK   39  A    between atoms: _103  and  _105
REMARK   40  A    between atoms: _105  and  _106
REMARK   41  A    between atoms: _105  and  _108
REMARK   42  A    between atoms: _108  and  _109
REMARK   43  A    between atoms: _114  and  _116
REMARK   44  A    between atoms: _116  and  _117
REMARK   45  A    between atoms: _116  and  _119
REMARK   46  A    between atoms: _119  and  _120
REMARK   47  A    between atoms: _122  and  _124
REMARK   48  A    between atoms: _124  and  _125
REMARK   49  A    between atoms: _124  and  _127
REMARK   50  A    between atoms: _127  and  _128
REMARK   51  A    between atoms: _134  and  _136
REMARK   52  A    between atoms: _136  and  _137
REMARK   53  A    between atoms: _136  and  _139
REMARK   54  A    between atoms: _139  and  _140
REMARK   55  A    between atoms: _143  and  _145
REMARK   56  A    between atoms: _145  and  _146
REMARK   57  A    between atoms: _145  and  _148
REMARK   58  A    between atoms: _148  and  _149
REMARK   59  A    between atoms: _151  and  _153
REMARK   60  A    between atoms: _153  and  _154
REMARK   61  A    between atoms: _153  and  _156
REMARK   62  A    between atoms: _156  and  _157
REMARK   63  A    between atoms: _160  and  _162
REMARK   64  A    between atoms: _162  and  _163
REMARK   65  A    between atoms: _165  and  _167
REMARK   66  A    between atoms: _167  and  _168
REMARK   67  A    between atoms: _170  and  _172
REMARK   68  A    between atoms: _172  and  _173
REMARK   69  A    between atoms: _172  and  _175
REMARK   70  A    between atoms: _175  and  _176
REMARK   71  A    between atoms: _186  and  _188
REMARK   72  A    between atoms: _188  and  _189
REMARK   73  A    between atoms: _188  and  _191
REMARK   74  A    between atoms: _191  and  _192
REMARK   75  A    between atoms: _197  and  _198
REMARK   76  A    between atoms: _200  and  _202
REMARK   77  A    between atoms: _202  and  _203
REMARK   78  A    between atoms: _202  and  _205
REMARK   79  A    between atoms: _205  and  _206
REMARK   80  A    between atoms: _211  and  _212
REMARK   81  A    between atoms: _214  and  _216
REMARK   82  A    between atoms: _216  and  _217
REMARK   83  A    between atoms: _216  and  _219
REMARK   84  A    between atoms: _219  and  _220
REMARK   85  A    between atoms: _222  and  _224
REMARK   86  A    between atoms: _224  and  _225
REMARK   87  A    between atoms: _224  and  _227
REMARK   88  A    between atoms: _227  and  _228
REMARK   89  A    between atoms: _233  and  _235
REMARK   90  A    between atoms: _235  and  _236
REMARK   91  A    between atoms: _235  and  _238
REMARK   92  A    between atoms: _241  and  _243
REMARK   93  A    between atoms: _243  and  _244
REMARK   94  A    between atoms: _243  and  _246
REMARK   95  A    between atoms: _246  and  _247
REMARK   96  A    between atoms: _250  and  _252
REMARK   97  A    between atoms: _252  and  _253
REMARK   98  A    between atoms: _252  and  _255
REMARK   99  A    between atoms: _255  and  _256
REMARK  100  A    between atoms: _259  and  _261
REMARK  101  A    between atoms: _261  and  _262
REMARK  102  A    between atoms: _261  and  _264
REMARK  103  A    between atoms: _264  and  _265
REMARK  104  A    between atoms: _270  and  _272
REMARK  105  A    between atoms: _272  and  _273
REMARK  106  A    between atoms: _272  and  _275
REMARK  107  A    between atoms: _275  and  _276
REMARK  108  A    between atoms: _286  and  _288
REMARK  109  A    between atoms: _288  and  _289
REMARK  110  A    between atoms: _288  and  _291
REMARK  111  A    between atoms: _291  and  _292
REMARK  112  A    between atoms: _292  and  _293
REMARK  113  A    between atoms: _296  and  _298
REMARK  114  A    between atoms: _298  and  _299
REMARK  115  A    between atoms: _298  and  _301
REMARK  116  A    between atoms: _301  and  _302
REMARK  117  A    between atoms: _307  and  _308
REMARK  118  A    between atoms: _310  and  _312
REMARK  119  A    between atoms: _312  and  _313
REMARK  120  A    between atoms: _312  and  _315
REMARK  121  A    between atoms: _315  and  _316
REMARK  122  A    between atoms: _319  and  _321
REMARK  123  A    between atoms: _321  and  _322
REMARK  124  A    between atoms: _325  and  _327
REMARK  125  A    between atoms: _327  and  _328
REMARK  126  A    between atoms: _330  and  _332
REMARK  127  A    between atoms: _332  and  _333
REMARK  128  A    between atoms: _332  and  _335
REMARK  129  A    between atoms: _335  and  _336
REMARK  130  A    between atoms: _341  and  _343
REMARK  131  A    between atoms: _343  and  _344
REMARK  132  A    between atoms: _343  and  _346
REMARK  133  A    between atoms: _346  and  _347
REMARK  134  A    between atoms: _350  and  _352
REMARK  135  A    between atoms: _352  and  _353
REMARK  136  A    between atoms: _352  and  _355
REMARK  137  A    between atoms: _355  and  _356
REMARK  138  A    between atoms: _356  and  _357
REMARK  139  A    between atoms: _359  and  _361
REMARK  140  A    between atoms: _361  and  _362
REMARK  141  A    between atoms: _361  and  _364
REMARK  142  A    between atoms: _364  and  _365
REMARK  143  A    between atoms: _368  and  _370
REMARK  144  A    between atoms: _370  and  _371
REMARK  145  A    between atoms: _370  and  _373
REMARK  146  A    between atoms: _373  and  _374
REMARK  147  A    between atoms: _379  and  _380
REMARK  148  A    between atoms: _382  and  _384
REMARK  149  A    between atoms: _384  and  _385
REMARK  150  A    between atoms: _384  and  _387
REMARK  151  A    between atoms: _387  and  _388
REMARK  152  A    between atoms: _391  and  _393
REMARK  153  A    between atoms: _393  and  _394
REMARK  154  A    between atoms: _393  and  _396
REMARK  155  A    between atoms: _396  and  _397
REMARK  156  A    between atoms: _407  and  _409
REMARK  157  A    between atoms: _409  and  _410
REMARK  158  A    between atoms: _409  and  _412
REMARK  159  A    between atoms: _412  and  _413
REMARK  160  A    between atoms: _413  and  _414
REMARK  161  A    between atoms: _419  and  _421
REMARK  162  A    between atoms: _421  and  _422
REMARK  163  A    between atoms: _424  and  _426
REMARK  164  A    between atoms: _426  and  _427
REMARK  165  A    between atoms: _426  and  _429
REMARK  166  A    between atoms: _433  and  _434
REMARK  167  A    between atoms: _439  and  _441
REMARK  168  A    between atoms: _441  and  _442
REMARK  169  A    between atoms: _441  and  _444
REMARK  170  A    between atoms: _444  and  _445
REMARK  171  A    between atoms: _451  and  _453
REMARK  172  A    between atoms: _453  and  _454
REMARK  173  A    between atoms: _453  and  _456
REMARK  174  A    between atoms: _456  and  _457
REMARK  175  A    between atoms: _462  and  _463
REMARK  176  A    between atoms: _465  and  _467
REMARK  177  A    between atoms: _467  and  _468
REMARK  178  A    between atoms: _470  and  _472
REMARK  179  A    between atoms: _472  and  _473
REMARK  180  A    between atoms: _472  and  _475
REMARK  181  A    between atoms: _475  and  _476
REMARK  182  A    between atoms: _476  and  _477
REMARK  183  A    between atoms: _477  and  _478
REMARK  184  A    between atoms: _487  and  _489
REMARK  185  A    between atoms: _489  and  _490
REMARK  186  A    between atoms: _489  and  _492
REMARK  187  A    between atoms: _492  and  _493
REMARK  188  A    between atoms: _496  and  _498
REMARK  189  A    between atoms: _498  and  _499
REMARK  190  A    between atoms: _498  and  _501
REMARK  191  A    between atoms: _501  and  _502
REMARK  192  A    between atoms: _502  and  _503
REMARK  193  A    between atoms: _506  and  _508
REMARK  194  A    between atoms: _508  and  _509
REMARK  195  A    between atoms: _508  and  _511
REMARK  196  A    between atoms: _511  and  _512
REMARK  197  A    between atoms: _512  and  _513
REMARK  198  A    between atoms: _513  and  _514
REMARK  199  A    between atoms: _523  and  _525
REMARK  200  A    between atoms: _525  and  _526
REMARK  201  A    between atoms: _525  and  _528
REMARK  202  A    between atoms: _528  and  _529
REMARK  203  A    between atoms: _532  and  _534
REMARK  204  A    between atoms: _534  and  _535
REMARK  205  A    between atoms: _534  and  _537
REMARK  206  A    between atoms: _537  and  _538
REMARK  207  A    between atoms: _538  and  _539
REMARK  208  A    between atoms: _539  and  _540
REMARK  209  A    between atoms: _540  and  _541
REMARK  210  A    between atoms: _545  and  _547
REMARK  211  A    between atoms: _547  and  _548
REMARK  212  A    between atoms: _547  and  _550
REMARK  213  A    between atoms: _550  and  _551
REMARK  214  A    between atoms: _554  and  _556
REMARK  215  A    between atoms: _556  and  _557
REMARK  216  A    between atoms: _556  and  _559
REMARK  217  A    between atoms: _559  and  _560
REMARK  218  A    between atoms: _560  and  _561
REMARK  219  A    between atoms: _561  and  _562
REMARK  220  A    between atoms: _571  and  _573
REMARK  221  A    between atoms: _573  and  _574
REMARK  222  A    between atoms: _573  and  _576
REMARK  223  A    between atoms: _576  and  _577
REMARK  224  A    between atoms: _580  and  _582
REMARK  225  A    between atoms: _582  and  _583
REMARK  226  A    between atoms: _586  and  _588
REMARK  227  A    between atoms: _588  and  _589
REMARK  228  A    between atoms: _588  and  _591
REMARK  229  A    between atoms: _591  and  _592
REMARK  230  A    between atoms: _594  and  _596
REMARK  231  A    between atoms: _596  and  _597
REMARK  232  A    between atoms: _596  and  _599
REMARK  233  A    between atoms: _599  and  _600
REMARK  234  A    between atoms: _600  and  _601
REMARK  235  A    between atoms: _603  and  _605
REMARK  236  A    between atoms: _605  and  _606
REMARK  237  A    between atoms: _605  and  _608
REMARK  238  A    between atoms: _608  and  _609
REMARK  239  A    between atoms: _615  and  _617
REMARK  240  A    between atoms: _617  and  _618
REMARK  241  A    between atoms: _617  and  _620
REMARK  242  A    between atoms: _620  and  _621
REMARK  243  A    between atoms: _631  and  _633
REMARK  244  A    between atoms: _633  and  _634
REMARK  245  A    between atoms: _633  and  _636
REMARK  246  A    between atoms: _636  and  _637
REMARK  247  A    between atoms: _642  and  _644
REMARK  248  A    between atoms: _644  and  _645
REMARK  249  A    between atoms: _644  and  _647
REMARK  250  A    between atoms: _647  and  _648
REMARK  251  A    between atoms: _648  and  _649
REMARK                            x       y       z     vdW  Elec       q    Type
REMARK                         _______ _______ _______ _____ _____    ______ ____
ROOT
ATOM      1  O   HOH     1       9.760  42.161 103.577  0.00  0.00    +0.000 OA
ENDROOT
TORSDOF 0
REMARK  Name = ../refined-set-2016/1ogg/1ogg_pocket.pdb
REMARK  251 active torsions:
REMARK  status: ('A' for Active; 'I' for Inactive)
REMARK    1  A    between atoms: _1  and  _3
REMARK    2  A    between atoms: _3  and  _4
REMARK    3  A    between atoms: _3  and  _6
REMARK    4  A    between atoms: _6  and  _7
REMARK    5  A    between atoms: _10  and  _12
REMARK    6  A    between atoms: _12  and  _13
REMARK    7  A    between atoms: _15  and  _17
REMARK    8  A    between atoms: _17  and  _18
REMARK    9  A    between atoms: _17  and  _20
REMARK   10  A    between atoms: _20  and  _21
REMARK   11  A    between atoms: _26  and  _27
REMARK   12  A    between atoms: _29  and  _31
REMARK   13  A    between atoms: _31  and  _32
REMARK   14  A    between atoms: _31  and  _34
REMARK   15  A    between atoms: _34  and  _35
REMARK   16  A    between atoms: _40  and  _41
REMARK   17  A    between atoms: _43  and  _45
REMARK   18  A    between atoms: _45  and  _46
REMARK   19  A    between atoms: _45  and  _48
REMARK   20  A    between atoms: _48  and  _49
REMARK   21  A    between atoms: _55  and  _57
REMARK   22  A    between atoms: _57  and  _58
REMARK   23  A    between atoms: _57  and  _60
REMARK   24  A    between atoms: _60  and  _61
REMARK   25  A    between atoms: _65  and  _66
REMARK   26  A    between atoms: _71  and  _73
REMARK   27  A    between atoms: _73  and  _74
REMARK   28  A    between atoms: _73  and  _76
REMARK   29  A    between atoms: _76  and  _77
REMARK   30  A    between atoms: _80  and  _82
REMARK   31  A    between atoms: _82  and  _83
REMARK   32  A    between atoms: _82  and  _85
REMARK   33  A    between atoms: _85  and  _86
REMARK   34  A    between atoms: _91  and  _93
REMARK   35  A    between atoms: _93  and  _94
REMARK   36  A    between atoms: _93  and  _96
REMARK   37  A    between atoms: _96  and  _97
REMARK   38  A    between atoms: _97  and  _98
REMARK   39  A    between atoms: _103  and  _105
REMARK   40  A    between atoms: _105  and  _106
REMARK   41  A    between atoms: _105  and  _108
REMARK   42  A    between atoms: _108  and  _109
REMARK   43  A    between atoms: _114  and  _116
REMARK   44  A    between atoms: _116  and  _117
REMARK   45  A    between atoms: _116  and  _119
REMARK   46  A    between atoms: _119  and  _120
REMARK   47  A    between atoms: _122  and  _124
REMARK   48  A    between atoms: _124  and  _125
REMARK   49  A    between atoms: _124  and  _127
REMARK   50  A    between atoms: _127  and  _128
REMARK   51  A    between atoms: _134  and  _136
REMARK   52  A    between atoms: _136  and  _137
REMARK   53  A    between atoms: _136  and  _139
REMARK   54  A    between atoms: _139  and  _140
REMARK   55  A    between atoms: _143  and  _145
REMARK   56  A    between atoms: _145  and  _146
REMARK   57  A    between atoms: _145  and  _148
REMARK   58  A    between atoms: _148  and  _149
REMARK   59  A    between atoms: _151  and  _153
REMARK   60  A    between atoms: _153  and  _154
REMARK   61  A    between atoms: _153  and  _156
REMARK   62  A    between atoms: _156  and  _157
REMARK   63  A    between atoms: _160  and  _162
REMARK   64  A    between atoms: _162  and  _163
REMARK   65  A    between atoms: _165  and  _167
REMARK   66  A    between atoms: _167  and  _168
REMARK   67  A    between atoms: _170  and  _172
REMARK   68  A    between atoms: _172  and  _173
REMARK   69  A    between atoms: _172  and  _175
REMARK   70  A    between atoms: _175  and  _176
REMARK   71  A    between atoms: _186  and  _188
REMARK   72  A    between atoms: _188  and  _189
REMARK   73  A    between atoms: _188  and  _191
REMARK   74  A    between atoms: _191  and  _192
REMARK   75  A    between atoms: _197  and  _198
REMARK   76  A    between atoms: _200  and  _202
REMARK   77  A    between atoms: _202  and  _203
REMARK   78  A    between atoms: _202  and  _205
REMARK   79  A    between atoms: _205  and  _206
REMARK   80  A    between atoms: _211  and  _212
REMARK   81  A    between atoms: _214  and  _216
REMARK   82  A    between atoms: _216  and  _217
REMARK   83  A    between atoms: _216  and  _219
REMARK   84  A    between atoms: _219  and  _220
REMARK   85  A    between atoms: _222  and  _224
REMARK   86  A    between atoms: _224  and  _225
REMARK   87  A    between atoms: _224  and  _227
REMARK   88  A    between atoms: _227  and  _228
REMARK   89  A    between atoms: _233  and  _235
REMARK   90  A    between atoms: _235  and  _236
REMARK   91  A    between atoms: _235  and  _238
REMARK   92  A    between atoms: _241  and  _243
REMARK   93  A    between atoms: _243  and  _244
REMARK   94  A    between atoms: _243  and  _246
REMARK   95  A    between atoms: _246  and  _247
REMARK   96  A    between atoms: _250  and  _252
REMARK   97  A    between atoms: _252  and  _253
REMARK   98  A    between atoms: _252  and  _255
REMARK   99  A    between atoms: _255  and  _256
REMARK  100  A    between atoms: _259  and  _261
REMARK  101  A    between atoms: _261  and  _262
REMARK  102  A    between atoms: _261  and  _264
REMARK  103  A    between atoms: _264  and  _265
REMARK  104  A    between atoms: _270  and  _272
REMARK  105  A    between atoms: _272  and  _273
REMARK  106  A    between atoms: _272  and  _275
REMARK  107  A    between atoms: _275  and  _276
REMARK  108  A    between atoms: _286  and  _288
REMARK  109  A    between atoms: _288  and  _289
REMARK  110  A    between atoms: _288  and  _291
REMARK  111  A    between atoms: _291  and  _292
REMARK  112  A    between atoms: _292  and  _293
REMARK  113  A    between atoms: _296  and  _298
REMARK  114  A    between atoms: _298  and  _299
REMARK  115  A    between atoms: _298  and  _301
REMARK  116  A    between atoms: _301  and  _302
REMARK  117  A    between atoms: _307  and  _308
REMARK  118  A    between atoms: _310  and  _312
REMARK  119  A    between atoms: _312  and  _313
REMARK  120  A    between atoms: _312  and  _315
REMARK  121  A    between atoms: _315  and  _316
REMARK  122  A    between atoms: _319  and  _321
REMARK  123  A    between atoms: _321  and  _322
REMARK  124  A    between atoms: _325  and  _327
REMARK  125  A    between atoms: _327  and  _328
REMARK  126  A    between atoms: _330  and  _332
REMARK  127  A    between atoms: _332  and  _333
REMARK  128  A    between atoms: _332  and  _335
REMARK  129  A    between atoms: _335  and  _336
REMARK  130  A    between atoms: _341  and  _343
REMARK  131  A    between atoms: _343  and  _344
REMARK  132  A    between atoms: _343  and  _346
REMARK  133  A    between atoms: _346  and  _347
REMARK  134  A    between atoms: _350  and  _352
REMARK  135  A    between atoms: _352  and  _353
REMARK  136  A    between atoms: _352  and  _355
REMARK  137  A    between atoms: _355  and  _356
REMARK  138  A    between atoms: _356  and  _357
REMARK  139  A    between atoms: _359  and  _361
REMARK  140  A    between atoms: _361  and  _362
REMARK  141  A    between atoms: _361  and  _364
REMARK  142  A    between atoms: _364  and  _365
REMARK  143  A    between atoms: _368  and  _370
REMARK  144  A    between atoms: _370  and  _371
REMARK  145  A    between atoms: _370  and  _373
REMARK  146  A    between atoms: _373  and  _374
REMARK  147  A    between atoms: _379  and  _380
REMARK  148  A    between atoms: _382  and  _384
REMARK  149  A    between atoms: _384  and  _385
REMARK  150  A    between atoms: _384  and  _387
REMARK  151  A    between atoms: _387  and  _388
REMARK  152  A    between atoms: _391  and  _393
REMARK  153  A    between atoms: _393  and  _394
REMARK  154  A    between atoms: _393  and  _396
REMARK  155  A    between atoms: _396  and  _397
REMARK  156  A    between atoms: _407  and  _409
REMARK  157  A    between atoms: _409  and  _410
REMARK  158  A    between atoms: _409  and  _412
REMARK  159  A    between atoms: _412  and  _413
REMARK  160  A    between atoms: _413  and  _414
REMARK  161  A    between atoms: _419  and  _421
REMARK  162  A    between atoms: _421  and  _422
REMARK  163  A    between atoms: _424  and  _426
REMARK  164  A    between atoms: _426  and  _427
REMARK  165  A    between atoms: _426  and  _429
REMARK  166  A    between atoms: _433  and  _434
REMARK  167  A    between atoms: _439  and  _441
REMARK  168  A    between atoms: _441  and  _442
REMARK  169  A    between atoms: _441  and  _444
REMARK  170  A    between atoms: _444  and  _445
REMARK  171  A    between atoms: _451  and  _453
REMARK  172  A    between atoms: _453  and  _454
REMARK  173  A    between atoms: _453  and  _456
REMARK  174  A    between atoms: _456  and  _457
REMARK  175  A    between atoms: _462  and  _463
REMARK  176  A    between atoms: _465  and  _467
REMARK  177  A    between atoms: _467  and  _468
REMARK  178  A    between atoms: _470  and  _472
REMARK  179  A    between atoms: _472  and  _473
REMARK  180  A    between atoms: _472  and  _475
REMARK  181  A    between atoms: _475  and  _476
REMARK  182  A    between atoms: _476  and  _477
REMARK  183  A    between atoms: _477  and  _478
REMARK  184  A    between atoms: _487  and  _489
REMARK  185  A    between atoms: _489  and  _490
REMARK  186  A    between atoms: _489  and  _492
REMARK  187  A    between atoms: _492  and  _493
REMARK  188  A    between atoms: _496  and  _498
REMARK  189  A    between atoms: _498  and  _499
REMARK  190  A    between atoms: _498  and  _501
REMARK  191  A    between atoms: _501  and  _502
REMARK  192  A    between atoms: _502  and  _503
REMARK  193  A    between atoms: _506  and  _508
REMARK  194  A    between atoms: _508  and  _509
REMARK  195  A    between atoms: _508  and  _511
REMARK  196  A    between atoms: _511  and  _512
REMARK  197  A    between atoms: _512  and  _513
REMARK  198  A    between atoms: _513  and  _514
REMARK  199  A    between atoms: _523  and  _525
REMARK  200  A    between atoms: _525  and  _526
REMARK  201  A    between atoms: _525  and  _528
REMARK  202  A    between atoms: _528  and  _529
REMARK  203  A    between atoms: _532  and  _534
REMARK  204  A    between atoms: _534  and  _535
REMARK  205  A    between atoms: _534  and  _537
REMARK  206  A    between atoms: _537  and  _538
REMARK  207  A    between atoms: _538  and  _539
REMARK  208  A    between atoms: _539  and  _540
REMARK  209  A    between atoms: _540  and  _541
REMARK  210  A    between atoms: _545  and  _547
REMARK  211  A    between atoms: _547  and  _548
REMARK  212  A    between atoms: _547  and  _550
REMARK  213  A    between atoms: _550  and  _551
REMARK  214  A    between atoms: _554  and  _556
REMARK  215  A    between atoms: _556  and  _557
REMARK  216  A    between atoms: _556  and  _559
REMARK  217  A    between atoms: _559  and  _560
REMARK  218  A    between atoms: _560  and  _561
REMARK  219  A    between atoms: _561  and  _562
REMARK  220  A    between atoms: _571  and  _573
REMARK  221  A    between atoms: _573  and  _574
REMARK  222  A    between atoms: _573  and  _576
REMARK  223  A    between atoms: _576  and  _577
REMARK  224  A    between atoms: _580  and  _582
REMARK  225  A    between atoms: _582  and  _583
REMARK  226  A    between atoms: _586  and  _588
REMARK  227  A    between atoms: _588  and  _589
REMARK  228  A    between atoms: _588  and  _591
REMARK  229  A    between atoms: _591  and  _592
REMARK  230  A    between atoms: _594  and  _596
REMARK  231  A    between atoms: _596  and  _597
REMARK  232  A    between atoms: _596  and  _599
REMARK  233  A    between atoms: _599  and  _600
REMARK  234  A    between atoms: _600  and  _601
REMARK  235  A    between atoms: _603  and  _605
REMARK  236  A    between atoms: _605  and  _606
REMARK  237  A    between atoms: _605  and  _608
REMARK  238  A    between atoms: _608  and  _609
REMARK  239  A    between atoms: _615  and  _617
REMARK  240  A    between atoms: _617  and  _618
REMARK  241  A    between atoms: _617  and  _620
REMARK  242  A    between atoms: _620  and  _621
REMARK  243  A    between atoms: _631  and  _633
REMARK  244  A    between atoms: _633  and  _634
REMARK  245  A    between atoms: _633  and  _636
REMARK  246  A    between atoms: _636  and  _637
REMARK  247  A    between atoms: _642  and  _644
REMARK  248  A    between atoms: _644  and  _645
REMARK  249  A    between atoms: _644  and  _647
REMARK  250  A    between atoms: _647  and  _648
REMARK  251  A    between atoms: _648  and  _649
REMARK                            x       y       z     vdW  Elec       q    Type
REMARK                         _______ _______ _______ _____ _____    ______ ____
ROOT
ATOM      1  O   HOH     1      10.828  43.530 101.759  0.00  0.00    +0.000 OA
ENDROOT
TORSDOF 0
REMARK  Name = ../refined-set-2016/1ogg/1ogg_pocket.pdb
REMARK  251 active torsions:
REMARK  status: ('A' for Active; 'I' for Inactive)
REMARK    1  A    between atoms: _1  and  _3
REMARK    2  A    between atoms: _3  and  _4
REMARK    3  A    between atoms: _3  and  _6
REMARK    4  A    between atoms: _6  and  _7
REMARK    5  A    between atoms: _10  and  _12
REMARK    6  A    between atoms: _12  and  _13
REMARK    7  A    between atoms: _15  and  _17
REMARK    8  A    between atoms: _17  and  _18
REMARK    9  A    between atoms: _17  and  _20
REMARK   10  A    between atoms: _20  and  _21
REMARK   11  A    between atoms: _26  and  _27
REMARK   12  A    between atoms: _29  and  _31
REMARK   13  A    between atoms: _31  and  _32
REMARK   14  A    between atoms: _31  and  _34
REMARK   15  A    between atoms: _34  and  _35
REMARK   16  A    between atoms: _40  and  _41
REMARK   17  A    between atoms: _43  and  _45
REMARK   18  A    between atoms: _45  and  _46
REMARK   19  A    between atoms: _45  and  _48
REMARK   20  A    between atoms: _48  and  _49
REMARK   21  A    between atoms: _55  and  _57
REMARK   22  A    between atoms: _57  and  _58
REMARK   23  A    between atoms: _57  and  _60
REMARK   24  A    between atoms: _60  and  _61
REMARK   25  A    between atoms: _65  and  _66
REMARK   26  A    between atoms: _71  and  _73
REMARK   27  A    between atoms: _73  and  _74
REMARK   28  A    between atoms: _73  and  _76
REMARK   29  A    between atoms: _76  and  _77
REMARK   30  A    between atoms: _80  and  _82
REMARK   31  A    between atoms: _82  and  _83
REMARK   32  A    between atoms: _82  and  _85
REMARK   33  A    between atoms: _85  and  _86
REMARK   34  A    between atoms: _91  and  _93
REMARK   35  A    between atoms: _93  and  _94
REMARK   36  A    between atoms: _93  and  _96
REMARK   37  A    between atoms: _96  and  _97
REMARK   38  A    between atoms: _97  and  _98
REMARK   39  A    between atoms: _103  and  _105
REMARK   40  A    between atoms: _105  and  _106
REMARK   41  A    between atoms: _105  and  _108
REMARK   42  A    between atoms: _108  and  _109
REMARK   43  A    between atoms: _114  and  _116
REMARK   44  A    between atoms: _116  and  _117
REMARK   45  A    between atoms: _116  and  _119
REMARK   46  A    between atoms: _119  and  _120
REMARK   47  A    between atoms: _122  and  _124
REMARK   48  A    between atoms: _124  and  _125
REMARK   49  A    between atoms: _124  and  _127
REMARK   50  A    between atoms: _127  and  _128
REMARK   51  A    between atoms: _134  and  _136
REMARK   52  A    between atoms: _136  and  _137
REMARK   53  A    between atoms: _136  and  _139
REMARK   54  A    between atoms: _139  and  _140
REMARK   55  A    between atoms: _143  and  _145
REMARK   56  A    between atoms: _145  and  _146
REMARK   57  A    between atoms: _145  and  _148
REMARK   58  A    between atoms: _148  and  _149
REMARK   59  A    between atoms: _151  and  _153
REMARK   60  A    between atoms: _153  and  _154
REMARK   61  A    between atoms: _153  and  _156
REMARK   62  A    between atoms: _156  and  _157
REMARK   63  A    between atoms: _160  and  _162
REMARK   64  A    between atoms: _162  and  _163
REMARK   65  A    between atoms: _165  and  _167
REMARK   66  A    between atoms: _167  and  _168
REMARK   67  A    between atoms: _170  and  _172
REMARK   68  A    between atoms: _172  and  _173
REMARK   69  A    between atoms: _172  and  _175
REMARK   70  A    between atoms: _175  and  _176
REMARK   71  A    between atoms: _186  and  _188
REMARK   72  A    between atoms: _188  and  _189
REMARK   73  A    between atoms: _188  and  _191
REMARK   74  A    between atoms: _191  and  _192
REMARK   75  A    between atoms: _197  and  _198
REMARK   76  A    between atoms: _200  and  _202
REMARK   77  A    between atoms: _202  and  _203
REMARK   78  A    between atoms: _202  and  _205
REMARK   79  A    between atoms: _205  and  _206
REMARK   80  A    between atoms: _211  and  _212
REMARK   81  A    between atoms: _214  and  _216
REMARK   82  A    between atoms: _216  and  _217
REMARK   83  A    between atoms: _216  and  _219
REMARK   84  A    between atoms: _219  and  _220
REMARK   85  A    between atoms: _222  and  _224
REMARK   86  A    between atoms: _224  and  _225
REMARK   87  A    between atoms: _224  and  _227
REMARK   88  A    between atoms: _227  and  _228
REMARK   89  A    between atoms: _233  and  _235
REMARK   90  A    between atoms: _235  and  _236
REMARK   91  A    between atoms: _235  and  _238
REMARK   92  A    between atoms: _241  and  _243
REMARK   93  A    between atoms: _243  and  _244
REMARK   94  A    between atoms: _243  and  _246
REMARK   95  A    between atoms: _246  and  _247
REMARK   96  A    between atoms: _250  and  _252
REMARK   97  A    between atoms: _252  and  _253
REMARK   98  A    between atoms: _252  and  _255
REMARK   99  A    between atoms: _255  and  _256
REMARK  100  A    between atoms: _259  and  _261
REMARK  101  A    between atoms: _261  and  _262
REMARK  102  A    between atoms: _261  and  _264
REMARK  103  A    between atoms: _264  and  _265
REMARK  104  A    between atoms: _270  and  _272
REMARK  105  A    between atoms: _272  and  _273
REMARK  106  A    between atoms: _272  and  _275
REMARK  107  A    between atoms: _275  and  _276
REMARK  108  A    between atoms: _286  and  _288
REMARK  109  A    between atoms: _288  and  _289
REMARK  110  A    between atoms: _288  and  _291
REMARK  111  A    between atoms: _291  and  _292
REMARK  112  A    between atoms: _292  and  _293
REMARK  113  A    between atoms: _296  and  _298
REMARK  114  A    between atoms: _298  and  _299
REMARK  115  A    between atoms: _298  and  _301
REMARK  116  A    between atoms: _301  and  _302
REMARK  117  A    between atoms: _307  and  _308
REMARK  118  A    between atoms: _310  and  _312
REMARK  119  A    between atoms: _312  and  _313
REMARK  120  A    between atoms: _312  and  _315
REMARK  121  A    between atoms: _315  and  _316
REMARK  122  A    between atoms: _319  and  _321
REMARK  123  A    between atoms: _321  and  _322
REMARK  124  A    between atoms: _325  and  _327
REMARK  125  A    between atoms: _327  and  _328
REMARK  126  A    between atoms: _330  and  _332
REMARK  127  A    between atoms: _332  and  _333
REMARK  128  A    between atoms: _332  and  _335
REMARK  129  A    between atoms: _335  and  _336
REMARK  130  A    between atoms: _341  and  _343
REMARK  131  A    between atoms: _343  and  _344
REMARK  132  A    between atoms: _343  and  _346
REMARK  133  A    between atoms: _346  and  _347
REMARK  134  A    between atoms: _350  and  _352
REMARK  135  A    between atoms: _352  and  _353
REMARK  136  A    between atoms: _352  and  _355
REMARK  137  A    between atoms: _355  and  _356
REMARK  138  A    between atoms: _356  and  _357
REMARK  139  A    between atoms: _359  and  _361
REMARK  140  A    between atoms: _361  and  _362
REMARK  141  A    between atoms: _361  and  _364
REMARK  142  A    between atoms: _364  and  _365
REMARK  143  A    between atoms: _368  and  _370
REMARK  144  A    between atoms: _370  and  _371
REMARK  145  A    between atoms: _370  and  _373
REMARK  146  A    between atoms: _373  and  _374
REMARK  147  A    between atoms: _379  and  _380
REMARK  148  A    between atoms: _382  and  _384
REMARK  149  A    between atoms: _384  and  _385
REMARK  150  A    between atoms: _384  and  _387
REMARK  151  A    between atoms: _387  and  _388
REMARK  152  A    between atoms: _391  and  _393
REMARK  153  A    between atoms: _393  and  _394
REMARK  154  A    between atoms: _393  and  _396
REMARK  155  A    between atoms: _396  and  _397
REMARK  156  A    between atoms: _407  and  _409
REMARK  157  A    between atoms: _409  and  _410
REMARK  158  A    between atoms: _409  and  _412
REMARK  159  A    between atoms: _412  and  _413
REMARK  160  A    between atoms: _413  and  _414
REMARK  161  A    between atoms: _419  and  _421
REMARK  162  A    between atoms: _421  and  _422
REMARK  163  A    between atoms: _424  and  _426
REMARK  164  A    between atoms: _426  and  _427
REMARK  165  A    between atoms: _426  and  _429
REMARK  166  A    between atoms: _433  and  _434
REMARK  167  A    between atoms: _439  and  _441
REMARK  168  A    between atoms: _441  and  _442
REMARK  169  A    between atoms: _441  and  _444
REMARK  170  A    between atoms: _444  and  _445
REMARK  171  A    between atoms: _451  and  _453
REMARK  172  A    between atoms: _453  and  _454
REMARK  173  A    between atoms: _453  and  _456
REMARK  174  A    between atoms: _456  and  _457
REMARK  175  A    between atoms: _462  and  _463
REMARK  176  A    between atoms: _465  and  _467
REMARK  177  A    between atoms: _467  and  _468
REMARK  178  A    between atoms: _470  and  _472
REMARK  179  A    between atoms: _472  and  _473
REMARK  180  A    between atoms: _472  and  _475
REMARK  181  A    between atoms: _475  and  _476
REMARK  182  A    between atoms: _476  and  _477
REMARK  183  A    between atoms: _477  and  _478
REMARK  184  A    between atoms: _487  and  _489
REMARK  185  A    between atoms: _489  and  _490
REMARK  186  A    between atoms: _489  and  _492
REMARK  187  A    between atoms: _492  and  _493
REMARK  188  A    between atoms: _496  and  _498
REMARK  189  A    between atoms: _498  and  _499
REMARK  190  A    between atoms: _498  and  _501
REMARK  191  A    between atoms: _501  and  _502
REMARK  192  A    between atoms: _502  and  _503
REMARK  193  A    between atoms: _506  and  _508
REMARK  194  A    between atoms: _508  and  _509
REMARK  195  A    between atoms: _508  and  _511
REMARK  196  A    between atoms: _511  and  _512
REMARK  197  A    between atoms: _512  and  _513
REMARK  198  A    between atoms: _513  and  _514
REMARK  199  A    between atoms: _523  and  _525
REMARK  200  A    between atoms: _525  and  _526
REMARK  201  A    between atoms: _525  and  _528
REMARK  202  A    between atoms: _528  and  _529
REMARK  203  A    between atoms: _532  and  _534
REMARK  204  A    between atoms: _534  and  _535
REMARK  205  A    between atoms: _534  and  _537
REMARK  206  A    between atoms: _537  and  _538
REMARK  207  A    between atoms: _538  and  _539
REMARK  208  A    between atoms: _539  and  _540
REMARK  209  A    between atoms: _540  and  _541
REMARK  210  A    between atoms: _545  and  _547
REMARK  211  A    between atoms: _547  and  _548
REMARK  212  A    between atoms: _547  and  _550
REMARK  213  A    between atoms: _550  and  _551
REMARK  214  A    between atoms: _554  and  _556
REMARK  215  A    between atoms: _556  and  _557
REMARK  216  A    between atoms: _556  and  _559
REMARK  217  A    between atoms: _559  and  _560
REMARK  218  A    between atoms: _560  and  _561
REMARK  219  A    between atoms: _561  and  _562
REMARK  220  A    between atoms: _571  and  _573
REMARK  221  A    between atoms: _573  and  _574
REMARK  222  A    between atoms: _573  and  _576
REMARK  223  A    between atoms: _576  and  _577
REMARK  224  A    between atoms: _580  and  _582
REMARK  225  A    between atoms: _582  and  _583
REMARK  226  A    between atoms: _586  and  _588
REMARK  227  A    between atoms: _588  and  _589
REMARK  228  A    between atoms: _588  and  _591
REMARK  229  A    between atoms: _591  and  _592
REMARK  230  A    between atoms: _594  and  _596
REMARK  231  A    between atoms: _596  and  _597
REMARK  232  A    between atoms: _596  and  _599
REMARK  233  A    between atoms: _599  and  _600
REMARK  234  A    between atoms: _600  and  _601
REMARK  235  A    between atoms: _603  and  _605
REMARK  236  A    between atoms: _605  and  _606
REMARK  237  A    between atoms: _605  and  _608
REMARK  238  A    between atoms: _608  and  _609
REMARK  239  A    between atoms: _615  and  _617
REMARK  240  A    between atoms: _617  and  _618
REMARK  241  A    between atoms: _617  and  _620
REMARK  242  A    between atoms: _620  and  _621
REMARK  243  A    between atoms: _631  and  _633
REMARK  244  A    between atoms: _633  and  _634
REMARK  245  A    between atoms: _633  and  _636
REMARK  246  A    between atoms: _636  and  _637
REMARK  247  A    between atoms: _642  and  _644
REMARK  248  A    between atoms: _644  and  _645
REMARK  249  A    between atoms: _644  and  _647
REMARK  250  A    between atoms: _647  and  _648
REMARK  251  A    between atoms: _648  and  _649
REMARK                            x       y       z     vdW  Elec       q    Type
REMARK                         _______ _______ _______ _____ _____    ______ ____
ROOT
ATOM      1  O   HOH     1       8.746  39.147  95.808  0.00  0.00    +0.000 OA
ENDROOT
TORSDOF 0
REMARK  Name = ../refined-set-2016/1ogg/1ogg_pocket.pdb
REMARK  251 active torsions:
REMARK  status: ('A' for Active; 'I' for Inactive)
REMARK    1  A    between atoms: _1  and  _3
REMARK    2  A    between atoms: _3  and  _4
REMARK    3  A    between atoms: _3  and  _6
REMARK    4  A    between atoms: _6  and  _7
REMARK    5  A    between atoms: _10  and  _12
REMARK    6  A    between atoms: _12  and  _13
REMARK    7  A    between atoms: _15  and  _17
REMARK    8  A    between atoms: _17  and  _18
REMARK    9  A    between atoms: _17  and  _20
REMARK   10  A    between atoms: _20  and  _21
REMARK   11  A    between atoms: _26  and  _27
REMARK   12  A    between atoms: _29  and  _31
REMARK   13  A    between atoms: _31  and  _32
REMARK   14  A    between atoms: _31  and  _34
REMARK   15  A    between atoms: _34  and  _35
REMARK   16  A    between atoms: _40  and  _41
REMARK   17  A    between atoms: _43  and  _45
REMARK   18  A    between atoms: _45  and  _46
REMARK   19  A    between atoms: _45  and  _48
REMARK   20  A    between atoms: _48  and  _49
REMARK   21  A    between atoms: _55  and  _57
REMARK   22  A    between atoms: _57  and  _58
REMARK   23  A    between atoms: _57  and  _60
REMARK   24  A    between atoms: _60  and  _61
REMARK   25  A    between atoms: _65  and  _66
REMARK   26  A    between atoms: _71  and  _73
REMARK   27  A    between atoms: _73  and  _74
REMARK   28  A    between atoms: _73  and  _76
REMARK   29  A    between atoms: _76  and  _77
REMARK   30  A    between atoms: _80  and  _82
REMARK   31  A    between atoms: _82  and  _83
REMARK   32  A    between atoms: _82  and  _85
REMARK   33  A    between atoms: _85  and  _86
REMARK   34  A    between atoms: _91  and  _93
REMARK   35  A    between atoms: _93  and  _94
REMARK   36  A    between atoms: _93  and  _96
REMARK   37  A    between atoms: _96  and  _97
REMARK   38  A    between atoms: _97  and  _98
REMARK   39  A    between atoms: _103  and  _105
REMARK   40  A    between atoms: _105  and  _106
REMARK   41  A    between atoms: _105  and  _108
REMARK   42  A    between atoms: _108  and  _109
REMARK   43  A    between atoms: _114  and  _116
REMARK   44  A    between atoms: _116  and  _117
REMARK   45  A    between atoms: _116  and  _119
REMARK   46  A    between atoms: _119  and  _120
REMARK   47  A    between atoms: _122  and  _124
REMARK   48  A    between atoms: _124  and  _125
REMARK   49  A    between atoms: _124  and  _127
REMARK   50  A    between atoms: _127  and  _128
REMARK   51  A    between atoms: _134  and  _136
REMARK   52  A    between atoms: _136  and  _137
REMARK   53  A    between atoms: _136  and  _139
REMARK   54  A    between atoms: _139  and  _140
REMARK   55  A    between atoms: _143  and  _145
REMARK   56  A    between atoms: _145  and  _146
REMARK   57  A    between atoms: _145  and  _148
REMARK   58  A    between atoms: _148  and  _149
REMARK   59  A    between atoms: _151  and  _153
REMARK   60  A    between atoms: _153  and  _154
REMARK   61  A    between atoms: _153  and  _156
REMARK   62  A    between atoms: _156  and  _157
REMARK   63  A    between atoms: _160  and  _162
REMARK   64  A    between atoms: _162  and  _163
REMARK   65  A    between atoms: _165  and  _167
REMARK   66  A    between atoms: _167  and  _168
REMARK   67  A    between atoms: _170  and  _172
REMARK   68  A    between atoms: _172  and  _173
REMARK   69  A    between atoms: _172  and  _175
REMARK   70  A    between atoms: _175  and  _176
REMARK   71  A    between atoms: _186  and  _188
REMARK   72  A    between atoms: _188  and  _189
REMARK   73  A    between atoms: _188  and  _191
REMARK   74  A    between atoms: _191  and  _192
REMARK   75  A    between atoms: _197  and  _198
REMARK   76  A    between atoms: _200  and  _202
REMARK   77  A    between atoms: _202  and  _203
REMARK   78  A    between atoms: _202  and  _205
REMARK   79  A    between atoms: _205  and  _206
REMARK   80  A    between atoms: _211  and  _212
REMARK   81  A    between atoms: _214  and  _216
REMARK   82  A    between atoms: _216  and  _217
REMARK   83  A    between atoms: _216  and  _219
REMARK   84  A    between atoms: _219  and  _220
REMARK   85  A    between atoms: _222  and  _224
REMARK   86  A    between atoms: _224  and  _225
REMARK   87  A    between atoms: _224  and  _227
REMARK   88  A    between atoms: _227  and  _228
REMARK   89  A    between atoms: _233  and  _235
REMARK   90  A    between atoms: _235  and  _236
REMARK   91  A    between atoms: _235  and  _238
REMARK   92  A    between atoms: _241  and  _243
REMARK   93  A    between atoms: _243  and  _244
REMARK   94  A    between atoms: _243  and  _246
REMARK   95  A    between atoms: _246  and  _247
REMARK   96  A    between atoms: _250  and  _252
REMARK   97  A    between atoms: _252  and  _253
REMARK   98  A    between atoms: _252  and  _255
REMARK   99  A    between atoms: _255  and  _256
REMARK  100  A    between atoms: _259  and  _261
REMARK  101  A    between atoms: _261  and  _262
REMARK  102  A    between atoms: _261  and  _264
REMARK  103  A    between atoms: _264  and  _265
REMARK  104  A    between atoms: _270  and  _272
REMARK  105  A    between atoms: _272  and  _273
REMARK  106  A    between atoms: _272  and  _275
REMARK  107  A    between atoms: _275  and  _276
REMARK  108  A    between atoms: _286  and  _288
REMARK  109  A    between atoms: _288  and  _289
REMARK  110  A    between atoms: _288  and  _291
REMARK  111  A    between atoms: _291  and  _292
REMARK  112  A    between atoms: _292  and  _293
REMARK  113  A    between atoms: _296  and  _298
REMARK  114  A    between atoms: _298  and  _299
REMARK  115  A    between atoms: _298  and  _301
REMARK  116  A    between atoms: _301  and  _302
REMARK  117  A    between atoms: _307  and  _308
REMARK  118  A    between atoms: _310  and  _312
REMARK  119  A    between atoms: _312  and  _313
REMARK  120  A    between atoms: _312  and  _315
REMARK  121  A    between atoms: _315  and  _316
REMARK  122  A    between atoms: _319  and  _321
REMARK  123  A    between atoms: _321  and  _322
REMARK  124  A    between atoms: _325  and  _327
REMARK  125  A    between atoms: _327  and  _328
REMARK  126  A    between atoms: _330  and  _332
REMARK  127  A    between atoms: _332  and  _333
REMARK  128  A    between atoms: _332  and  _335
REMARK  129  A    between atoms: _335  and  _336
REMARK  130  A    between atoms: _341  and  _343
REMARK  131  A    between atoms: _343  and  _344
REMARK  132  A    between atoms: _343  and  _346
REMARK  133  A    between atoms: _346  and  _347
REMARK  134  A    between atoms: _350  and  _352
REMARK  135  A    between atoms: _352  and  _353
REMARK  136  A    between atoms: _352  and  _355
REMARK  137  A    between atoms: _355  and  _356
REMARK  138  A    between atoms: _356  and  _357
REMARK  139  A    between atoms: _359  and  _361
REMARK  140  A    between atoms: _361  and  _362
REMARK  141  A    between atoms: _361  and  _364
REMARK  142  A    between atoms: _364  and  _365
REMARK  143  A    between atoms: _368  and  _370
REMARK  144  A    between atoms: _370  and  _371
REMARK  145  A    between atoms: _370  and  _373
REMARK  146  A    between atoms: _373  and  _374
REMARK  147  A    between atoms: _379  and  _380
REMARK  148  A    between atoms: _382  and  _384
REMARK  149  A    between atoms: _384  and  _385
REMARK  150  A    between atoms: _384  and  _387
REMARK  151  A    between atoms: _387  and  _388
REMARK  152  A    between atoms: _391  and  _393
REMARK  153  A    between atoms: _393  and  _394
REMARK  154  A    between atoms: _393  and  _396
REMARK  155  A    between atoms: _396  and  _397
REMARK  156  A    between atoms: _407  and  _409
REMARK  157  A    between atoms: _409  and  _410
REMARK  158  A    between atoms: _409  and  _412
REMARK  159  A    between atoms: _412  and  _413
REMARK  160  A    between atoms: _413  and  _414
REMARK  161  A    between atoms: _419  and  _421
REMARK  162  A    between atoms: _421  and  _422
REMARK  163  A    between atoms: _424  and  _426
REMARK  164  A    between atoms: _426  and  _427
REMARK  165  A    between atoms: _426  and  _429
REMARK  166  A    between atoms: _433  and  _434
REMARK  167  A    between atoms: _439  and  _441
REMARK  168  A    between atoms: _441  and  _442
REMARK  169  A    between atoms: _441  and  _444
REMARK  170  A    between atoms: _444  and  _445
REMARK  171  A    between atoms: _451  and  _453
REMARK  172  A    between atoms: _453  and  _454
REMARK  173  A    between atoms: _453  and  _456
REMARK  174  A    between atoms: _456  and  _457
REMARK  175  A    between atoms: _462  and  _463
REMARK  176  A    between atoms: _465  and  _467
REMARK  177  A    between atoms: _467  and  _468
REMARK  178  A    between atoms: _470  and  _472
REMARK  179  A    between atoms: _472  and  _473
REMARK  180  A    between atoms: _472  and  _475
REMARK  181  A    between atoms: _475  and  _476
REMARK  182  A    between atoms: _476  and  _477
REMARK  183  A    between atoms: _477  and  _478
REMARK  184  A    between atoms: _487  and  _489
REMARK  185  A    between atoms: _489  and  _490
REMARK  186  A    between atoms: _489  and  _492
REMARK  187  A    between atoms: _492  and  _493
REMARK  188  A    between atoms: _496  and  _498
REMARK  189  A    between atoms: _498  and  _499
REMARK  190  A    between atoms: _498  and  _501
REMARK  191  A    between atoms: _501  and  _502
REMARK  192  A    between atoms: _502  and  _503
REMARK  193  A    between atoms: _506  and  _508
REMARK  194  A    between atoms: _508  and  _509
REMARK  195  A    between atoms: _508  and  _511
REMARK  196  A    between atoms: _511  and  _512
REMARK  197  A    between atoms: _512  and  _513
REMARK  198  A    between atoms: _513  and  _514
REMARK  199  A    between atoms: _523  and  _525
REMARK  200  A    between atoms: _525  and  _526
REMARK  201  A    between atoms: _525  and  _528
REMARK  202  A    between atoms: _528  and  _529
REMARK  203  A    between atoms: _532  and  _534
REMARK  204  A    between atoms: _534  and  _535
REMARK  205  A    between atoms: _534  and  _537
REMARK  206  A    between atoms: _537  and  _538
REMARK  207  A    between atoms: _538  and  _539
REMARK  208  A    between atoms: _539  and  _540
REMARK  209  A    between atoms: _540  and  _541
REMARK  210  A    between atoms: _545  and  _547
REMARK  211  A    between atoms: _547  and  _548
REMARK  212  A    between atoms: _547  and  _550
REMARK  213  A    between atoms: _550  and  _551
REMARK  214  A    between atoms: _554  and  _556
REMARK  215  A    between atoms: _556  and  _557
REMARK  216  A    between atoms: _556  and  _559
REMARK  217  A    between atoms: _559  and  _560
REMARK  218  A    between atoms: _560  and  _561
REMARK  219  A    between atoms: _561  and  _562
REMARK  220  A    between atoms: _571  and  _573
REMARK  221  A    between atoms: _573  and  _574
REMARK  222  A    between atoms: _573  and  _576
REMARK  223  A    between atoms: _576  and  _577
REMARK  224  A    between atoms: _580  and  _582
REMARK  225  A    between atoms: _582  and  _583
REMARK  226  A    between atoms: _586  and  _588
REMARK  227  A    between atoms: _588  and  _589
REMARK  228  A    between atoms: _588  and  _591
REMARK  229  A    between atoms: _591  and  _592
REMARK  230  A    between atoms: _594  and  _596
REMARK  231  A    between atoms: _596  and  _597
REMARK  232  A    between atoms: _596  and  _599
REMARK  233  A    between atoms: _599  and  _600
REMARK  234  A    between atoms: _600  and  _601
REMARK  235  A    between atoms: _603  and  _605
REMARK  236  A    between atoms: _605  and  _606
REMARK  237  A    between atoms: _605  and  _608
REMARK  238  A    between atoms: _608  and  _609
REMARK  239  A    between atoms: _615  and  _617
REMARK  240  A    between atoms: _617  and  _618
REMARK  241  A    between atoms: _617  and  _620
REMARK  242  A    between atoms: _620  and  _621
REMARK  243  A    between atoms: _631  and  _633
REMARK  244  A    between atoms: _633  and  _634
REMARK  245  A    between atoms: _633  and  _636
REMARK  246  A    between atoms: _636  and  _637
REMARK  247  A    between atoms: _642  and  _644
REMARK  248  A    between atoms: _644  and  _645
REMARK  249  A    between atoms: _644  and  _647
REMARK  250  A    between atoms: _647  and  _648
REMARK  251  A    between atoms: _648  and  _649
REMARK                            x       y       z     vdW  Elec       q    Type
REMARK                         _______ _______ _______ _____ _____    ______ ____
ROOT
ATOM      1  O   HOH     1       8.116  42.078 106.195  0.00  0.00    +0.000 OA
ENDROOT
TORSDOF 0
REMARK  Name = ../refined-set-2016/1ogg/1ogg_pocket.pdb
REMARK  251 active torsions:
REMARK  status: ('A' for Active; 'I' for Inactive)
REMARK    1  A    between atoms: _1  and  _3
REMARK    2  A    between atoms: _3  and  _4
REMARK    3  A    between atoms: _3  and  _6
REMARK    4  A    between atoms: _6  and  _7
REMARK    5  A    between atoms: _10  and  _12
REMARK    6  A    between atoms: _12  and  _13
REMARK    7  A    between atoms: _15  and  _17
REMARK    8  A    between atoms: _17  and  _18
REMARK    9  A    between atoms: _17  and  _20
REMARK   10  A    between atoms: _20  and  _21
REMARK   11  A    between atoms: _26  and  _27
REMARK   12  A    between atoms: _29  and  _31
REMARK   13  A    between atoms: _31  and  _32
REMARK   14  A    between atoms: _31  and  _34
REMARK   15  A    between atoms: _34  and  _35
REMARK   16  A    between atoms: _40  and  _41
REMARK   17  A    between atoms: _43  and  _45
REMARK   18  A    between atoms: _45  and  _46
REMARK   19  A    between atoms: _45  and  _48
REMARK   20  A    between atoms: _48  and  _49
REMARK   21  A    between atoms: _55  and  _57
REMARK   22  A    between atoms: _57  and  _58
REMARK   23  A    between atoms: _57  and  _60
REMARK   24  A    between atoms: _60  and  _61
REMARK   25  A    between atoms: _65  and  _66
REMARK   26  A    between atoms: _71  and  _73
REMARK   27  A    between atoms: _73  and  _74
REMARK   28  A    between atoms: _73  and  _76
REMARK   29  A    between atoms: _76  and  _77
REMARK   30  A    between atoms: _80  and  _82
REMARK   31  A    between atoms: _82  and  _83
REMARK   32  A    between atoms: _82  and  _85
REMARK   33  A    between atoms: _85  and  _86
REMARK   34  A    between atoms: _91  and  _93
REMARK   35  A    between atoms: _93  and  _94
REMARK   36  A    between atoms: _93  and  _96
REMARK   37  A    between atoms: _96  and  _97
REMARK   38  A    between atoms: _97  and  _98
REMARK   39  A    between atoms: _103  and  _105
REMARK   40  A    between atoms: _105  and  _106
REMARK   41  A    between atoms: _105  and  _108
REMARK   42  A    between atoms: _108  and  _109
REMARK   43  A    between atoms: _114  and  _116
REMARK   44  A    between atoms: _116  and  _117
REMARK   45  A    between atoms: _116  and  _119
REMARK   46  A    between atoms: _119  and  _120
REMARK   47  A    between atoms: _122  and  _124
REMARK   48  A    between atoms: _124  and  _125
REMARK   49  A    between atoms: _124  and  _127
REMARK   50  A    between atoms: _127  and  _128
REMARK   51  A    between atoms: _134  and  _136
REMARK   52  A    between atoms: _136  and  _137
REMARK   53  A    between atoms: _136  and  _139
REMARK   54  A    between atoms: _139  and  _140
REMARK   55  A    between atoms: _143  and  _145
REMARK   56  A    between atoms: _145  and  _146
REMARK   57  A    between atoms: _145  and  _148
REMARK   58  A    between atoms: _148  and  _149
REMARK   59  A    between atoms: _151  and  _153
REMARK   60  A    between atoms: _153  and  _154
REMARK   61  A    between atoms: _153  and  _156
REMARK   62  A    between atoms: _156  and  _157
REMARK   63  A    between atoms: _160  and  _162
REMARK   64  A    between atoms: _162  and  _163
REMARK   65  A    between atoms: _165  and  _167
REMARK   66  A    between atoms: _167  and  _168
REMARK   67  A    between atoms: _170  and  _172
REMARK   68  A    between atoms: _172  and  _173
REMARK   69  A    between atoms: _172  and  _175
REMARK   70  A    between atoms: _175  and  _176
REMARK   71  A    between atoms: _186  and  _188
REMARK   72  A    between atoms: _188  and  _189
REMARK   73  A    between atoms: _188  and  _191
REMARK   74  A    between atoms: _191  and  _192
REMARK   75  A    between atoms: _197  and  _198
REMARK   76  A    between atoms: _200  and  _202
REMARK   77  A    between atoms: _202  and  _203
REMARK   78  A    between atoms: _202  and  _205
REMARK   79  A    between atoms: _205  and  _206
REMARK   80  A    between atoms: _211  and  _212
REMARK   81  A    between atoms: _214  and  _216
REMARK   82  A    between atoms: _216  and  _217
REMARK   83  A    between atoms: _216  and  _219
REMARK   84  A    between atoms: _219  and  _220
REMARK   85  A    between atoms: _222  and  _224
REMARK   86  A    between atoms: _224  and  _225
REMARK   87  A    between atoms: _224  and  _227
REMARK   88  A    between atoms: _227  and  _228
REMARK   89  A    between atoms: _233  and  _235
REMARK   90  A    between atoms: _235  and  _236
REMARK   91  A    between atoms: _235  and  _238
REMARK   92  A    between atoms: _241  and  _243
REMARK   93  A    between atoms: _243  and  _244
REMARK   94  A    between atoms: _243  and  _246
REMARK   95  A    between atoms: _246  and  _247
REMARK   96  A    between atoms: _250  and  _252
REMARK   97  A    between atoms: _252  and  _253
REMARK   98  A    between atoms: _252  and  _255
REMARK   99  A    between atoms: _255  and  _256
REMARK  100  A    between atoms: _259  and  _261
REMARK  101  A    between atoms: _261  and  _262
REMARK  102  A    between atoms: _261  and  _264
REMARK  103  A    between atoms: _264  and  _265
REMARK  104  A    between atoms: _270  and  _272
REMARK  105  A    between atoms: _272  and  _273
REMARK  106  A    between atoms: _272  and  _275
REMARK  107  A    between atoms: _275  and  _276
REMARK  108  A    between atoms: _286  and  _288
REMARK  109  A    between atoms: _288  and  _289
REMARK  110  A    between atoms: _288  and  _291
REMARK  111  A    between atoms: _291  and  _292
REMARK  112  A    between atoms: _292  and  _293
REMARK  113  A    between atoms: _296  and  _298
REMARK  114  A    between atoms: _298  and  _299
REMARK  115  A    between atoms: _298  and  _301
REMARK  116  A    between atoms: _301  and  _302
REMARK  117  A    between atoms: _307  and  _308
REMARK  118  A    between atoms: _310  and  _312
REMARK  119  A    between atoms: _312  and  _313
REMARK  120  A    between atoms: _312  and  _315
REMARK  121  A    between atoms: _315  and  _316
REMARK  122  A    between atoms: _319  and  _321
REMARK  123  A    between atoms: _321  and  _322
REMARK  124  A    between atoms: _325  and  _327
REMARK  125  A    between atoms: _327  and  _328
REMARK  126  A    between atoms: _330  and  _332
REMARK  127  A    between atoms: _332  and  _333
REMARK  128  A    between atoms: _332  and  _335
REMARK  129  A    between atoms: _335  and  _336
REMARK  130  A    between atoms: _341  and  _343
REMARK  131  A    between atoms: _343  and  _344
REMARK  132  A    between atoms: _343  and  _346
REMARK  133  A    between atoms: _346  and  _347
REMARK  134  A    between atoms: _350  and  _352
REMARK  135  A    between atoms: _352  and  _353
REMARK  136  A    between atoms: _352  and  _355
REMARK  137  A    between atoms: _355  and  _356
REMARK  138  A    between atoms: _356  and  _357
REMARK  139  A    between atoms: _359  and  _361
REMARK  140  A    between atoms: _361  and  _362
REMARK  141  A    between atoms: _361  and  _364
REMARK  142  A    between atoms: _364  and  _365
REMARK  143  A    between atoms: _368  and  _370
REMARK  144  A    between atoms: _370  and  _371
REMARK  145  A    between atoms: _370  and  _373
REMARK  146  A    between atoms: _373  and  _374
REMARK  147  A    between atoms: _379  and  _380
REMARK  148  A    between atoms: _382  and  _384
REMARK  149  A    between atoms: _384  and  _385
REMARK  150  A    between atoms: _384  and  _387
REMARK  151  A    between atoms: _387  and  _388
REMARK  152  A    between atoms: _391  and  _393
REMARK  153  A    between atoms: _393  and  _394
REMARK  154  A    between atoms: _393  and  _396
REMARK  155  A    between atoms: _396  and  _397
REMARK  156  A    between atoms: _407  and  _409
REMARK  157  A    between atoms: _409  and  _410
REMARK  158  A    between atoms: _409  and  _412
REMARK  159  A    between atoms: _412  and  _413
REMARK  160  A    between atoms: _413  and  _414
REMARK  161  A    between atoms: _419  and  _421
REMARK  162  A    between atoms: _421  and  _422
REMARK  163  A    between atoms: _424  and  _426
REMARK  164  A    between atoms: _426  and  _427
REMARK  165  A    between atoms: _426  and  _429
REMARK  166  A    between atoms: _433  and  _434
REMARK  167  A    between atoms: _439  and  _441
REMARK  168  A    between atoms: _441  and  _442
REMARK  169  A    between atoms: _441  and  _444
REMARK  170  A    between atoms: _444  and  _445
REMARK  171  A    between atoms: _451  and  _453
REMARK  172  A    between atoms: _453  and  _454
REMARK  173  A    between atoms: _453  and  _456
REMARK  174  A    between atoms: _456  and  _457
REMARK  175  A    between atoms: _462  and  _463
REMARK  176  A    between atoms: _465  and  _467
REMARK  177  A    between atoms: _467  and  _468
REMARK  178  A    between atoms: _470  and  _472
REMARK  179  A    between atoms: _472  and  _473
REMARK  180  A    between atoms: _472  and  _475
REMARK  181  A    between atoms: _475  and  _476
REMARK  182  A    between atoms: _476  and  _477
REMARK  183  A    between atoms: _477  and  _478
REMARK  184  A    between atoms: _487  and  _489
REMARK  185  A    between atoms: _489  and  _490
REMARK  186  A    between atoms: _489  and  _492
REMARK  187  A    between atoms: _492  and  _493
REMARK  188  A    between atoms: _496  and  _498
REMARK  189  A    between atoms: _498  and  _499
REMARK  190  A    between atoms: _498  and  _501
REMARK  191  A    between atoms: _501  and  _502
REMARK  192  A    between atoms: _502  and  _503
REMARK  193  A    between atoms: _506  and  _508
REMARK  194  A    between atoms: _508  and  _509
REMARK  195  A    between atoms: _508  and  _511
REMARK  196  A    between atoms: _511  and  _512
REMARK  197  A    between atoms: _512  and  _513
REMARK  198  A    between atoms: _513  and  _514
REMARK  199  A    between atoms: _523  and  _525
REMARK  200  A    between atoms: _525  and  _526
REMARK  201  A    between atoms: _525  and  _528
REMARK  202  A    between atoms: _528  and  _529
REMARK  203  A    between atoms: _532  and  _534
REMARK  204  A    between atoms: _534  and  _535
REMARK  205  A    between atoms: _534  and  _537
REMARK  206  A    between atoms: _537  and  _538
REMARK  207  A    between atoms: _538  and  _539
REMARK  208  A    between atoms: _539  and  _540
REMARK  209  A    between atoms: _540  and  _541
REMARK  210  A    between atoms: _545  and  _547
REMARK  211  A    between atoms: _547  and  _548
REMARK  212  A    between atoms: _547  and  _550
REMARK  213  A    between atoms: _550  and  _551
REMARK  214  A    between atoms: _554  and  _556
REMARK  215  A    between atoms: _556  and  _557
REMARK  216  A    between atoms: _556  and  _559
REMARK  217  A    between atoms: _559  and  _560
REMARK  218  A    between atoms: _560  and  _561
REMARK  219  A    between atoms: _561  and  _562
REMARK  220  A    between atoms: _571  and  _573
REMARK  221  A    between atoms: _573  and  _574
REMARK  222  A    between atoms: _573  and  _576
REMARK  223  A    between atoms: _576  and  _577
REMARK  224  A    between atoms: _580  and  _582
REMARK  225  A    between atoms: _582  and  _583
REMARK  226  A    between atoms: _586  and  _588
REMARK  227  A    between atoms: _588  and  _589
REMARK  228  A    between atoms: _588  and  _591
REMARK  229  A    between atoms: _591  and  _592
REMARK  230  A    between atoms: _594  and  _596
REMARK  231  A    between atoms: _596  and  _597
REMARK  232  A    between atoms: _596  and  _599
REMARK  233  A    between atoms: _599  and  _600
REMARK  234  A    between atoms: _600  and  _601
REMARK  235  A    between atoms: _603  and  _605
REMARK  236  A    between atoms: _605  and  _606
REMARK  237  A    between atoms: _605  and  _608
REMARK  238  A    between atoms: _608  and  _609
REMARK  239  A    between atoms: _615  and  _617
REMARK  240  A    between atoms: _617  and  _618
REMARK  241  A    between atoms: _617  and  _620
REMARK  242  A    between atoms: _620  and  _621
REMARK  243  A    between atoms: _631  and  _633
REMARK  244  A    between atoms: _633  and  _634
REMARK  245  A    between atoms: _633  and  _636
REMARK  246  A    between atoms: _636  and  _637
REMARK  247  A    between atoms: _642  and  _644
REMARK  248  A    between atoms: _644  and  _645
REMARK  249  A    between atoms: _644  and  _647
REMARK  250  A    between atoms: _647  and  _648
REMARK  251  A    between atoms: _648  and  _649
REMARK                            x       y       z     vdW  Elec       q    Type
REMARK                         _______ _______ _______ _____ _____    ______ ____
ROOT
ATOM      1  O   HOH     1      11.081  38.225  95.070  0.00  0.00    +0.000 OA
ENDROOT
TORSDOF 0
REMARK  Name = ../refined-set-2016/1ogg/1ogg_pocket.pdb
REMARK  251 active torsions:
REMARK  status: ('A' for Active; 'I' for Inactive)
REMARK    1  A    between atoms: _1  and  _3
REMARK    2  A    between atoms: _3  and  _4
REMARK    3  A    between atoms: _3  and  _6
REMARK    4  A    between atoms: _6  and  _7
REMARK    5  A    between atoms: _10  and  _12
REMARK    6  A    between atoms: _12  and  _13
REMARK    7  A    between atoms: _15  and  _17
REMARK    8  A    between atoms: _17  and  _18
REMARK    9  A    between atoms: _17  and  _20
REMARK   10  A    between atoms: _20  and  _21
REMARK   11  A    between atoms: _26  and  _27
REMARK   12  A    between atoms: _29  and  _31
REMARK   13  A    between atoms: _31  and  _32
REMARK   14  A    between atoms: _31  and  _34
REMARK   15  A    between atoms: _34  and  _35
REMARK   16  A    between atoms: _40  and  _41
REMARK   17  A    between atoms: _43  and  _45
REMARK   18  A    between atoms: _45  and  _46
REMARK   19  A    between atoms: _45  and  _48
REMARK   20  A    between atoms: _48  and  _49
REMARK   21  A    between atoms: _55  and  _57
REMARK   22  A    between atoms: _57  and  _58
REMARK   23  A    between atoms: _57  and  _60
REMARK   24  A    between atoms: _60  and  _61
REMARK   25  A    between atoms: _65  and  _66
REMARK   26  A    between atoms: _71  and  _73
REMARK   27  A    between atoms: _73  and  _74
REMARK   28  A    between atoms: _73  and  _76
REMARK   29  A    between atoms: _76  and  _77
REMARK   30  A    between atoms: _80  and  _82
REMARK   31  A    between atoms: _82  and  _83
REMARK   32  A    between atoms: _82  and  _85
REMARK   33  A    between atoms: _85  and  _86
REMARK   34  A    between atoms: _91  and  _93
REMARK   35  A    between atoms: _93  and  _94
REMARK   36  A    between atoms: _93  and  _96
REMARK   37  A    between atoms: _96  and  _97
REMARK   38  A    between atoms: _97  and  _98
REMARK   39  A    between atoms: _103  and  _105
REMARK   40  A    between atoms: _105  and  _106
REMARK   41  A    between atoms: _105  and  _108
REMARK   42  A    between atoms: _108  and  _109
REMARK   43  A    between atoms: _114  and  _116
REMARK   44  A    between atoms: _116  and  _117
REMARK   45  A    between atoms: _116  and  _119
REMARK   46  A    between atoms: _119  and  _120
REMARK   47  A    between atoms: _122  and  _124
REMARK   48  A    between atoms: _124  and  _125
REMARK   49  A    between atoms: _124  and  _127
REMARK   50  A    between atoms: _127  and  _128
REMARK   51  A    between atoms: _134  and  _136
REMARK   52  A    between atoms: _136  and  _137
REMARK   53  A    between atoms: _136  and  _139
REMARK   54  A    between atoms: _139  and  _140
REMARK   55  A    between atoms: _143  and  _145
REMARK   56  A    between atoms: _145  and  _146
REMARK   57  A    between atoms: _145  and  _148
REMARK   58  A    between atoms: _148  and  _149
REMARK   59  A    between atoms: _151  and  _153
REMARK   60  A    between atoms: _153  and  _154
REMARK   61  A    between atoms: _153  and  _156
REMARK   62  A    between atoms: _156  and  _157
REMARK   63  A    between atoms: _160  and  _162
REMARK   64  A    between atoms: _162  and  _163
REMARK   65  A    between atoms: _165  and  _167
REMARK   66  A    between atoms: _167  and  _168
REMARK   67  A    between atoms: _170  and  _172
REMARK   68  A    between atoms: _172  and  _173
REMARK   69  A    between atoms: _172  and  _175
REMARK   70  A    between atoms: _175  and  _176
REMARK   71  A    between atoms: _186  and  _188
REMARK   72  A    between atoms: _188  and  _189
REMARK   73  A    between atoms: _188  and  _191
REMARK   74  A    between atoms: _191  and  _192
REMARK   75  A    between atoms: _197  and  _198
REMARK   76  A    between atoms: _200  and  _202
REMARK   77  A    between atoms: _202  and  _203
REMARK   78  A    between atoms: _202  and  _205
REMARK   79  A    between atoms: _205  and  _206
REMARK   80  A    between atoms: _211  and  _212
REMARK   81  A    between atoms: _214  and  _216
REMARK   82  A    between atoms: _216  and  _217
REMARK   83  A    between atoms: _216  and  _219
REMARK   84  A    between atoms: _219  and  _220
REMARK   85  A    between atoms: _222  and  _224
REMARK   86  A    between atoms: _224  and  _225
REMARK   87  A    between atoms: _224  and  _227
REMARK   88  A    between atoms: _227  and  _228
REMARK   89  A    between atoms: _233  and  _235
REMARK   90  A    between atoms: _235  and  _236
REMARK   91  A    between atoms: _235  and  _238
REMARK   92  A    between atoms: _241  and  _243
REMARK   93  A    between atoms: _243  and  _244
REMARK   94  A    between atoms: _243  and  _246
REMARK   95  A    between atoms: _246  and  _247
REMARK   96  A    between atoms: _250  and  _252
REMARK   97  A    between atoms: _252  and  _253
REMARK   98  A    between atoms: _252  and  _255
REMARK   99  A    between atoms: _255  and  _256
REMARK  100  A    between atoms: _259  and  _261
REMARK  101  A    between atoms: _261  and  _262
REMARK  102  A    between atoms: _261  and  _264
REMARK  103  A    between atoms: _264  and  _265
REMARK  104  A    between atoms: _270  and  _272
REMARK  105  A    between atoms: _272  and  _273
REMARK  106  A    between atoms: _272  and  _275
REMARK  107  A    between atoms: _275  and  _276
REMARK  108  A    between atoms: _286  and  _288
REMARK  109  A    between atoms: _288  and  _289
REMARK  110  A    between atoms: _288  and  _291
REMARK  111  A    between atoms: _291  and  _292
REMARK  112  A    between atoms: _292  and  _293
REMARK  113  A    between atoms: _296  and  _298
REMARK  114  A    between atoms: _298  and  _299
REMARK  115  A    between atoms: _298  and  _301
REMARK  116  A    between atoms: _301  and  _302
REMARK  117  A    between atoms: _307  and  _308
REMARK  118  A    between atoms: _310  and  _312
REMARK  119  A    between atoms: _312  and  _313
REMARK  120  A    between atoms: _312  and  _315
REMARK  121  A    between atoms: _315  and  _316
REMARK  122  A    between atoms: _319  and  _321
REMARK  123  A    between atoms: _321  and  _322
REMARK  124  A    between atoms: _325  and  _327
REMARK  125  A    between atoms: _327  and  _328
REMARK  126  A    between atoms: _330  and  _332
REMARK  127  A    between atoms: _332  and  _333
REMARK  128  A    between atoms: _332  and  _335
REMARK  129  A    between atoms: _335  and  _336
REMARK  130  A    between atoms: _341  and  _343
REMARK  131  A    between atoms: _343  and  _344
REMARK  132  A    between atoms: _343  and  _346
REMARK  133  A    between atoms: _346  and  _347
REMARK  134  A    between atoms: _350  and  _352
REMARK  135  A    between atoms: _352  and  _353
REMARK  136  A    between atoms: _352  and  _355
REMARK  137  A    between atoms: _355  and  _356
REMARK  138  A    between atoms: _356  and  _357
REMARK  139  A    between atoms: _359  and  _361
REMARK  140  A    between atoms: _361  and  _362
REMARK  141  A    between atoms: _361  and  _364
REMARK  142  A    between atoms: _364  and  _365
REMARK  143  A    between atoms: _368  and  _370
REMARK  144  A    between atoms: _370  and  _371
REMARK  145  A    between atoms: _370  and  _373
REMARK  146  A    between atoms: _373  and  _374
REMARK  147  A    between atoms: _379  and  _380
REMARK  148  A    between atoms: _382  and  _384
REMARK  149  A    between atoms: _384  and  _385
REMARK  150  A    between atoms: _384  and  _387
REMARK  151  A    between atoms: _387  and  _388
REMARK  152  A    between atoms: _391  and  _393
REMARK  153  A    between atoms: _393  and  _394
REMARK  154  A    between atoms: _393  and  _396
REMARK  155  A    between atoms: _396  and  _397
REMARK  156  A    between atoms: _407  and  _409
REMARK  157  A    between atoms: _409  and  _410
REMARK  158  A    between atoms: _409  and  _412
REMARK  159  A    between atoms: _412  and  _413
REMARK  160  A    between atoms: _413  and  _414
REMARK  161  A    between atoms: _419  and  _421
REMARK  162  A    between atoms: _421  and  _422
REMARK  163  A    between atoms: _424  and  _426
REMARK  164  A    between atoms: _426  and  _427
REMARK  165  A    between atoms: _426  and  _429
REMARK  166  A    between atoms: _433  and  _434
REMARK  167  A    between atoms: _439  and  _441
REMARK  168  A    between atoms: _441  and  _442
REMARK  169  A    between atoms: _441  and  _444
REMARK  170  A    between atoms: _444  and  _445
REMARK  171  A    between atoms: _451  and  _453
REMARK  172  A    between atoms: _453  and  _454
REMARK  173  A    between atoms: _453  and  _456
REMARK  174  A    between atoms: _456  and  _457
REMARK  175  A    between atoms: _462  and  _463
REMARK  176  A    between atoms: _465  and  _467
REMARK  177  A    between atoms: _467  and  _468
REMARK  178  A    between atoms: _470  and  _472
REMARK  179  A    between atoms: _472  and  _473
REMARK  180  A    between atoms: _472  and  _475
REMARK  181  A    between atoms: _475  and  _476
REMARK  182  A    between atoms: _476  and  _477
REMARK  183  A    between atoms: _477  and  _478
REMARK  184  A    between atoms: _487  and  _489
REMARK  185  A    between atoms: _489  and  _490
REMARK  186  A    between atoms: _489  and  _492
REMARK  187  A    between atoms: _492  and  _493
REMARK  188  A    between atoms: _496  and  _498
REMARK  189  A    between atoms: _498  and  _499
REMARK  190  A    between atoms: _498  and  _501
REMARK  191  A    between atoms: _501  and  _502
REMARK  192  A    between atoms: _502  and  _503
REMARK  193  A    between atoms: _506  and  _508
REMARK  194  A    between atoms: _508  and  _509
REMARK  195  A    between atoms: _508  and  _511
REMARK  196  A    between atoms: _511  and  _512
REMARK  197  A    between atoms: _512  and  _513
REMARK  198  A    between atoms: _513  and  _514
REMARK  199  A    between atoms: _523  and  _525
REMARK  200  A    between atoms: _525  and  _526
REMARK  201  A    between atoms: _525  and  _528
REMARK  202  A    between atoms: _528  and  _529
REMARK  203  A    between atoms: _532  and  _534
REMARK  204  A    between atoms: _534  and  _535
REMARK  205  A    between atoms: _534  and  _537
REMARK  206  A    between atoms: _537  and  _538
REMARK  207  A    between atoms: _538  and  _539
REMARK  208  A    between atoms: _539  and  _540
REMARK  209  A    between atoms: _540  and  _541
REMARK  210  A    between atoms: _545  and  _547
REMARK  211  A    between atoms: _547  and  _548
REMARK  212  A    between atoms: _547  and  _550
REMARK  213  A    between atoms: _550  and  _551
REMARK  214  A    between atoms: _554  and  _556
REMARK  215  A    between atoms: _556  and  _557
REMARK  216  A    between atoms: _556  and  _559
REMARK  217  A    between atoms: _559  and  _560
REMARK  218  A    between atoms: _560  and  _561
REMARK  219  A    between atoms: _561  and  _562
REMARK  220  A    between atoms: _571  and  _573
REMARK  221  A    between atoms: _573  and  _574
REMARK  222  A    between atoms: _573  and  _576
REMARK  223  A    between atoms: _576  and  _577
REMARK  224  A    between atoms: _580  and  _582
REMARK  225  A    between atoms: _582  and  _583
REMARK  226  A    between atoms: _586  and  _588
REMARK  227  A    between atoms: _588  and  _589
REMARK  228  A    between atoms: _588  and  _591
REMARK  229  A    between atoms: _591  and  _592
REMARK  230  A    between atoms: _594  and  _596
REMARK  231  A    between atoms: _596  and  _597
REMARK  232  A    between atoms: _596  and  _599
REMARK  233  A    between atoms: _599  and  _600
REMARK  234  A    between atoms: _600  and  _601
REMARK  235  A    between atoms: _603  and  _605
REMARK  236  A    between atoms: _605  and  _606
REMARK  237  A    between atoms: _605  and  _608
REMARK  238  A    between atoms: _608  and  _609
REMARK  239  A    between atoms: _615  and  _617
REMARK  240  A    between atoms: _617  and  _618
REMARK  241  A    between atoms: _617  and  _620
REMARK  242  A    between atoms: _620  and  _621
REMARK  243  A    between atoms: _631  and  _633
REMARK  244  A    between atoms: _633  and  _634
REMARK  245  A    between atoms: _633  and  _636
REMARK  246  A    between atoms: _636  and  _637
REMARK  247  A    between atoms: _642  and  _644
REMARK  248  A    between atoms: _644  and  _645
REMARK  249  A    between atoms: _644  and  _647
REMARK  250  A    between atoms: _647  and  _648
REMARK  251  A    between atoms: _648  and  _649
REMARK                            x       y       z     vdW  Elec       q    Type
REMARK                         _______ _______ _______ _____ _____    ______ ____
ROOT
ATOM      1  O   HOH     1      17.017  50.511  98.301  0.00  0.00    +0.000 OA
ENDROOT
TORSDOF 0
REMARK  Name = ../refined-set-2016/1ogg/1ogg_pocket.pdb
REMARK  251 active torsions:
REMARK  status: ('A' for Active; 'I' for Inactive)
REMARK    1  A    between atoms: _1  and  _3
REMARK    2  A    between atoms: _3  and  _4
REMARK    3  A    between atoms: _3  and  _6
REMARK    4  A    between atoms: _6  and  _7
REMARK    5  A    between atoms: _10  and  _12
REMARK    6  A    between atoms: _12  and  _13
REMARK    7  A    between atoms: _15  and  _17
REMARK    8  A    between atoms: _17  and  _18
REMARK    9  A    between atoms: _17  and  _20
REMARK   10  A    between atoms: _20  and  _21
REMARK   11  A    between atoms: _26  and  _27
REMARK   12  A    between atoms: _29  and  _31
REMARK   13  A    between atoms: _31  and  _32
REMARK   14  A    between atoms: _31  and  _34
REMARK   15  A    between atoms: _34  and  _35
REMARK   16  A    between atoms: _40  and  _41
REMARK   17  A    between atoms: _43  and  _45
REMARK   18  A    between atoms: _45  and  _46
REMARK   19  A    between atoms: _45  and  _48
REMARK   20  A    between atoms: _48  and  _49
REMARK   21  A    between atoms: _55  and  _57
REMARK   22  A    between atoms: _57  and  _58
REMARK   23  A    between atoms: _57  and  _60
REMARK   24  A    between atoms: _60  and  _61
REMARK   25  A    between atoms: _65  and  _66
REMARK   26  A    between atoms: _71  and  _73
REMARK   27  A    between atoms: _73  and  _74
REMARK   28  A    between atoms: _73  and  _76
REMARK   29  A    between atoms: _76  and  _77
REMARK   30  A    between atoms: _80  and  _82
REMARK   31  A    between atoms: _82  and  _83
REMARK   32  A    between atoms: _82  and  _85
REMARK   33  A    between atoms: _85  and  _86
REMARK   34  A    between atoms: _91  and  _93
REMARK   35  A    between atoms: _93  and  _94
REMARK   36  A    between atoms: _93  and  _96
REMARK   37  A    between atoms: _96  and  _97
REMARK   38  A    between atoms: _97  and  _98
REMARK   39  A    between atoms: _103  and  _105
REMARK   40  A    between atoms: _105  and  _106
REMARK   41  A    between atoms: _105  and  _108
REMARK   42  A    between atoms: _108  and  _109
REMARK   43  A    between atoms: _114  and  _116
REMARK   44  A    between atoms: _116  and  _117
REMARK   45  A    between atoms: _116  and  _119
REMARK   46  A    between atoms: _119  and  _120
REMARK   47  A    between atoms: _122  and  _124
REMARK   48  A    between atoms: _124  and  _125
REMARK   49  A    between atoms: _124  and  _127
REMARK   50  A    between atoms: _127  and  _128
REMARK   51  A    between atoms: _134  and  _136
REMARK   52  A    between atoms: _136  and  _137
REMARK   53  A    between atoms: _136  and  _139
REMARK   54  A    between atoms: _139  and  _140
REMARK   55  A    between atoms: _143  and  _145
REMARK   56  A    between atoms: _145  and  _146
REMARK   57  A    between atoms: _145  and  _148
REMARK   58  A    between atoms: _148  and  _149
REMARK   59  A    between atoms: _151  and  _153
REMARK   60  A    between atoms: _153  and  _154
REMARK   61  A    between atoms: _153  and  _156
REMARK   62  A    between atoms: _156  and  _157
REMARK   63  A    between atoms: _160  and  _162
REMARK   64  A    between atoms: _162  and  _163
REMARK   65  A    between atoms: _165  and  _167
REMARK   66  A    between atoms: _167  and  _168
REMARK   67  A    between atoms: _170  and  _172
REMARK   68  A    between atoms: _172  and  _173
REMARK   69  A    between atoms: _172  and  _175
REMARK   70  A    between atoms: _175  and  _176
REMARK   71  A    between atoms: _186  and  _188
REMARK   72  A    between atoms: _188  and  _189
REMARK   73  A    between atoms: _188  and  _191
REMARK   74  A    between atoms: _191  and  _192
REMARK   75  A    between atoms: _197  and  _198
REMARK   76  A    between atoms: _200  and  _202
REMARK   77  A    between atoms: _202  and  _203
REMARK   78  A    between atoms: _202  and  _205
REMARK   79  A    between atoms: _205  and  _206
REMARK   80  A    between atoms: _211  and  _212
REMARK   81  A    between atoms: _214  and  _216
REMARK   82  A    between atoms: _216  and  _217
REMARK   83  A    between atoms: _216  and  _219
REMARK   84  A    between atoms: _219  and  _220
REMARK   85  A    between atoms: _222  and  _224
REMARK   86  A    between atoms: _224  and  _225
REMARK   87  A    between atoms: _224  and  _227
REMARK   88  A    between atoms: _227  and  _228
REMARK   89  A    between atoms: _233  and  _235
REMARK   90  A    between atoms: _235  and  _236
REMARK   91  A    between atoms: _235  and  _238
REMARK   92  A    between atoms: _241  and  _243
REMARK   93  A    between atoms: _243  and  _244
REMARK   94  A    between atoms: _243  and  _246
REMARK   95  A    between atoms: _246  and  _247
REMARK   96  A    between atoms: _250  and  _252
REMARK   97  A    between atoms: _252  and  _253
REMARK   98  A    between atoms: _252  and  _255
REMARK   99  A    between atoms: _255  and  _256
REMARK  100  A    between atoms: _259  and  _261
REMARK  101  A    between atoms: _261  and  _262
REMARK  102  A    between atoms: _261  and  _264
REMARK  103  A    between atoms: _264  and  _265
REMARK  104  A    between atoms: _270  and  _272
REMARK  105  A    between atoms: _272  and  _273
REMARK  106  A    between atoms: _272  and  _275
REMARK  107  A    between atoms: _275  and  _276
REMARK  108  A    between atoms: _286  and  _288
REMARK  109  A    between atoms: _288  and  _289
REMARK  110  A    between atoms: _288  and  _291
REMARK  111  A    between atoms: _291  and  _292
REMARK  112  A    between atoms: _292  and  _293
REMARK  113  A    between atoms: _296  and  _298
REMARK  114  A    between atoms: _298  and  _299
REMARK  115  A    between atoms: _298  and  _301
REMARK  116  A    between atoms: _301  and  _302
REMARK  117  A    between atoms: _307  and  _308
REMARK  118  A    between atoms: _310  and  _312
REMARK  119  A    between atoms: _312  and  _313
REMARK  120  A    between atoms: _312  and  _315
REMARK  121  A    between atoms: _315  and  _316
REMARK  122  A    between atoms: _319  and  _321
REMARK  123  A    between atoms: _321  and  _322
REMARK  124  A    between atoms: _325  and  _327
REMARK  125  A    between atoms: _327  and  _328
REMARK  126  A    between atoms: _330  and  _332
REMARK  127  A    between atoms: _332  and  _333
REMARK  128  A    between atoms: _332  and  _335
REMARK  129  A    between atoms: _335  and  _336
REMARK  130  A    between atoms: _341  and  _343
REMARK  131  A    between atoms: _343  and  _344
REMARK  132  A    between atoms: _343  and  _346
REMARK  133  A    between atoms: _346  and  _347
REMARK  134  A    between atoms: _350  and  _352
REMARK  135  A    between atoms: _352  and  _353
REMARK  136  A    between atoms: _352  and  _355
REMARK  137  A    between atoms: _355  and  _356
REMARK  138  A    between atoms: _356  and  _357
REMARK  139  A    between atoms: _359  and  _361
REMARK  140  A    between atoms: _361  and  _362
REMARK  141  A    between atoms: _361  and  _364
REMARK  142  A    between atoms: _364  and  _365
REMARK  143  A    between atoms: _368  and  _370
REMARK  144  A    between atoms: _370  and  _371
REMARK  145  A    between atoms: _370  and  _373
REMARK  146  A    between atoms: _373  and  _374
REMARK  147  A    between atoms: _379  and  _380
REMARK  148  A    between atoms: _382  and  _384
REMARK  149  A    between atoms: _384  and  _385
REMARK  150  A    between atoms: _384  and  _387
REMARK  151  A    between atoms: _387  and  _388
REMARK  152  A    between atoms: _391  and  _393
REMARK  153  A    between atoms: _393  and  _394
REMARK  154  A    between atoms: _393  and  _396
REMARK  155  A    between atoms: _396  and  _397
REMARK  156  A    between atoms: _407  and  _409
REMARK  157  A    between atoms: _409  and  _410
REMARK  158  A    between atoms: _409  and  _412
REMARK  159  A    between atoms: _412  and  _413
REMARK  160  A    between atoms: _413  and  _414
REMARK  161  A    between atoms: _419  and  _421
REMARK  162  A    between atoms: _421  and  _422
REMARK  163  A    between atoms: _424  and  _426
REMARK  164  A    between atoms: _426  and  _427
REMARK  165  A    between atoms: _426  and  _429
REMARK  166  A    between atoms: _433  and  _434
REMARK  167  A    between atoms: _439  and  _441
REMARK  168  A    between atoms: _441  and  _442
REMARK  169  A    between atoms: _441  and  _444
REMARK  170  A    between atoms: _444  and  _445
REMARK  171  A    between atoms: _451  and  _453
REMARK  172  A    between atoms: _453  and  _454
REMARK  173  A    between atoms: _453  and  _456
REMARK  174  A    between atoms: _456  and  _457
REMARK  175  A    between atoms: _462  and  _463
REMARK  176  A    between atoms: _465  and  _467
REMARK  177  A    between atoms: _467  and  _468
REMARK  178  A    between atoms: _470  and  _472
REMARK  179  A    between atoms: _472  and  _473
REMARK  180  A    between atoms: _472  and  _475
REMARK  181  A    between atoms: _475  and  _476
REMARK  182  A    between atoms: _476  and  _477
REMARK  183  A    between atoms: _477  and  _478
REMARK  184  A    between atoms: _487  and  _489
REMARK  185  A    between atoms: _489  and  _490
REMARK  186  A    between atoms: _489  and  _492
REMARK  187  A    between atoms: _492  and  _493
REMARK  188  A    between atoms: _496  and  _498
REMARK  189  A    between atoms: _498  and  _499
REMARK  190  A    between atoms: _498  and  _501
REMARK  191  A    between atoms: _501  and  _502
REMARK  192  A    between atoms: _502  and  _503
REMARK  193  A    between atoms: _506  and  _508
REMARK  194  A    between atoms: _508  and  _509
REMARK  195  A    between atoms: _508  and  _511
REMARK  196  A    between atoms: _511  and  _512
REMARK  197  A    between atoms: _512  and  _513
REMARK  198  A    between atoms: _513  and  _514
REMARK  199  A    between atoms: _523  and  _525
REMARK  200  A    between atoms: _525  and  _526
REMARK  201  A    between atoms: _525  and  _528
REMARK  202  A    between atoms: _528  and  _529
REMARK  203  A    between atoms: _532  and  _534
REMARK  204  A    between atoms: _534  and  _535
REMARK  205  A    between atoms: _534  and  _537
REMARK  206  A    between atoms: _537  and  _538
REMARK  207  A    between atoms: _538  and  _539
REMARK  208  A    between atoms: _539  and  _540
REMARK  209  A    between atoms: _540  and  _541
REMARK  210  A    between atoms: _545  and  _547
REMARK  211  A    between atoms: _547  and  _548
REMARK  212  A    between atoms: _547  and  _550
REMARK  213  A    between atoms: _550  and  _551
REMARK  214  A    between atoms: _554  and  _556
REMARK  215  A    between atoms: _556  and  _557
REMARK  216  A    between atoms: _556  and  _559
REMARK  217  A    between atoms: _559  and  _560
REMARK  218  A    between atoms: _560  and  _561
REMARK  219  A    between atoms: _561  and  _562
REMARK  220  A    between atoms: _571  and  _573
REMARK  221  A    between atoms: _573  and  _574
REMARK  222  A    between atoms: _573  and  _576
REMARK  223  A    between atoms: _576  and  _577
REMARK  224  A    between atoms: _580  and  _582
REMARK  225  A    between atoms: _582  and  _583
REMARK  226  A    between atoms: _586  and  _588
REMARK  227  A    between atoms: _588  and  _589
REMARK  228  A    between atoms: _588  and  _591
REMARK  229  A    between atoms: _591  and  _592
REMARK  230  A    between atoms: _594  and  _596
REMARK  231  A    between atoms: _596  and  _597
REMARK  232  A    between atoms: _596  and  _599
REMARK  233  A    between atoms: _599  and  _600
REMARK  234  A    between atoms: _600  and  _601
REMARK  235  A    between atoms: _603  and  _605
REMARK  236  A    between atoms: _605  and  _606
REMARK  237  A    between atoms: _605  and  _608
REMARK  238  A    between atoms: _608  and  _609
REMARK  239  A    between atoms: _615  and  _617
REMARK  240  A    between atoms: _617  and  _618
REMARK  241  A    between atoms: _617  and  _620
REMARK  242  A    between atoms: _620  and  _621
REMARK  243  A    between atoms: _631  and  _633
REMARK  244  A    between atoms: _633  and  _634
REMARK  245  A    between atoms: _633  and  _636
REMARK  246  A    between atoms: _636  and  _637
REMARK  247  A    between atoms: _642  and  _644
REMARK  248  A    between atoms: _644  and  _645
REMARK  249  A    between atoms: _644  and  _647
REMARK  250  A    between atoms: _647  and  _648
REMARK  251  A    between atoms: _648  and  _649
REMARK                            x       y       z     vdW  Elec       q    Type
REMARK                         _______ _______ _______ _____ _____    ______ ____
ROOT
ATOM      1  O   HOH     1      19.324  43.592  98.899  0.00  0.00    +0.000 OA
ENDROOT
TORSDOF 0
REMARK  Name = ../refined-set-2016/1ogg/1ogg_pocket.pdb
REMARK  251 active torsions:
REMARK  status: ('A' for Active; 'I' for Inactive)
REMARK    1  A    between atoms: _1  and  _3
REMARK    2  A    between atoms: _3  and  _4
REMARK    3  A    between atoms: _3  and  _6
REMARK    4  A    between atoms: _6  and  _7
REMARK    5  A    between atoms: _10  and  _12
REMARK    6  A    between atoms: _12  and  _13
REMARK    7  A    between atoms: _15  and  _17
REMARK    8  A    between atoms: _17  and  _18
REMARK    9  A    between atoms: _17  and  _20
REMARK   10  A    between atoms: _20  and  _21
REMARK   11  A    between atoms: _26  and  _27
REMARK   12  A    between atoms: _29  and  _31
REMARK   13  A    between atoms: _31  and  _32
REMARK   14  A    between atoms: _31  and  _34
REMARK   15  A    between atoms: _34  and  _35
REMARK   16  A    between atoms: _40  and  _41
REMARK   17  A    between atoms: _43  and  _45
REMARK   18  A    between atoms: _45  and  _46
REMARK   19  A    between atoms: _45  and  _48
REMARK   20  A    between atoms: _48  and  _49
REMARK   21  A    between atoms: _55  and  _57
REMARK   22  A    between atoms: _57  and  _58
REMARK   23  A    between atoms: _57  and  _60
REMARK   24  A    between atoms: _60  and  _61
REMARK   25  A    between atoms: _65  and  _66
REMARK   26  A    between atoms: _71  and  _73
REMARK   27  A    between atoms: _73  and  _74
REMARK   28  A    between atoms: _73  and  _76
REMARK   29  A    between atoms: _76  and  _77
REMARK   30  A    between atoms: _80  and  _82
REMARK   31  A    between atoms: _82  and  _83
REMARK   32  A    between atoms: _82  and  _85
REMARK   33  A    between atoms: _85  and  _86
REMARK   34  A    between atoms: _91  and  _93
REMARK   35  A    between atoms: _93  and  _94
REMARK   36  A    between atoms: _93  and  _96
REMARK   37  A    between atoms: _96  and  _97
REMARK   38  A    between atoms: _97  and  _98
REMARK   39  A    between atoms: _103  and  _105
REMARK   40  A    between atoms: _105  and  _106
REMARK   41  A    between atoms: _105  and  _108
REMARK   42  A    between atoms: _108  and  _109
REMARK   43  A    between atoms: _114  and  _116
REMARK   44  A    between atoms: _116  and  _117
REMARK   45  A    between atoms: _116  and  _119
REMARK   46  A    between atoms: _119  and  _120
REMARK   47  A    between atoms: _122  and  _124
REMARK   48  A    between atoms: _124  and  _125
REMARK   49  A    between atoms: _124  and  _127
REMARK   50  A    between atoms: _127  and  _128
REMARK   51  A    between atoms: _134  and  _136
REMARK   52  A    between atoms: _136  and  _137
REMARK   53  A    between atoms: _136  and  _139
REMARK   54  A    between atoms: _139  and  _140
REMARK   55  A    between atoms: _143  and  _145
REMARK   56  A    between atoms: _145  and  _146
REMARK   57  A    between atoms: _145  and  _148
REMARK   58  A    between atoms: _148  and  _149
REMARK   59  A    between atoms: _151  and  _153
REMARK   60  A    between atoms: _153  and  _154
REMARK   61  A    between atoms: _153  and  _156
REMARK   62  A    between atoms: _156  and  _157
REMARK   63  A    between atoms: _160  and  _162
REMARK   64  A    between atoms: _162  and  _163
REMARK   65  A    between atoms: _165  and  _167
REMARK   66  A    between atoms: _167  and  _168
REMARK   67  A    between atoms: _170  and  _172
REMARK   68  A    between atoms: _172  and  _173
REMARK   69  A    between atoms: _172  and  _175
REMARK   70  A    between atoms: _175  and  _176
REMARK   71  A    between atoms: _186  and  _188
REMARK   72  A    between atoms: _188  and  _189
REMARK   73  A    between atoms: _188  and  _191
REMARK   74  A    between atoms: _191  and  _192
REMARK   75  A    between atoms: _197  and  _198
REMARK   76  A    between atoms: _200  and  _202
REMARK   77  A    between atoms: _202  and  _203
REMARK   78  A    between atoms: _202  and  _205
REMARK   79  A    between atoms: _205  and  _206
REMARK   80  A    between atoms: _211  and  _212
REMARK   81  A    between atoms: _214  and  _216
REMARK   82  A    between atoms: _216  and  _217
REMARK   83  A    between atoms: _216  and  _219
REMARK   84  A    between atoms: _219  and  _220
REMARK   85  A    between atoms: _222  and  _224
REMARK   86  A    between atoms: _224  and  _225
REMARK   87  A    between atoms: _224  and  _227
REMARK   88  A    between atoms: _227  and  _228
REMARK   89  A    between atoms: _233  and  _235
REMARK   90  A    between atoms: _235  and  _236
REMARK   91  A    between atoms: _235  and  _238
REMARK   92  A    between atoms: _241  and  _243
REMARK   93  A    between atoms: _243  and  _244
REMARK   94  A    between atoms: _243  and  _246
REMARK   95  A    between atoms: _246  and  _247
REMARK   96  A    between atoms: _250  and  _252
REMARK   97  A    between atoms: _252  and  _253
REMARK   98  A    between atoms: _252  and  _255
REMARK   99  A    between atoms: _255  and  _256
REMARK  100  A    between atoms: _259  and  _261
REMARK  101  A    between atoms: _261  and  _262
REMARK  102  A    between atoms: _261  and  _264
REMARK  103  A    between atoms: _264  and  _265
REMARK  104  A    between atoms: _270  and  _272
REMARK  105  A    between atoms: _272  and  _273
REMARK  106  A    between atoms: _272  and  _275
REMARK  107  A    between atoms: _275  and  _276
REMARK  108  A    between atoms: _286  and  _288
REMARK  109  A    between atoms: _288  and  _289
REMARK  110  A    between atoms: _288  and  _291
REMARK  111  A    between atoms: _291  and  _292
REMARK  112  A    between atoms: _292  and  _293
REMARK  113  A    between atoms: _296  and  _298
REMARK  114  A    between atoms: _298  and  _299
REMARK  115  A    between atoms: _298  and  _301
REMARK  116  A    between atoms: _301  and  _302
REMARK  117  A    between atoms: _307  and  _308
REMARK  118  A    between atoms: _310  and  _312
REMARK  119  A    between atoms: _312  and  _313
REMARK  120  A    between atoms: _312  and  _315
REMARK  121  A    between atoms: _315  and  _316
REMARK  122  A    between atoms: _319  and  _321
REMARK  123  A    between atoms: _321  and  _322
REMARK  124  A    between atoms: _325  and  _327
REMARK  125  A    between atoms: _327  and  _328
REMARK  126  A    between atoms: _330  and  _332
REMARK  127  A    between atoms: _332  and  _333
REMARK  128  A    between atoms: _332  and  _335
REMARK  129  A    between atoms: _335  and  _336
REMARK  130  A    between atoms: _341  and  _343
REMARK  131  A    between atoms: _343  and  _344
REMARK  132  A    between atoms: _343  and  _346
REMARK  133  A    between atoms: _346  and  _347
REMARK  134  A    between atoms: _350  and  _352
REMARK  135  A    between atoms: _352  and  _353
REMARK  136  A    between atoms: _352  and  _355
REMARK  137  A    between atoms: _355  and  _356
REMARK  138  A    between atoms: _356  and  _357
REMARK  139  A    between atoms: _359  and  _361
REMARK  140  A    between atoms: _361  and  _362
REMARK  141  A    between atoms: _361  and  _364
REMARK  142  A    between atoms: _364  and  _365
REMARK  143  A    between atoms: _368  and  _370
REMARK  144  A    between atoms: _370  and  _371
REMARK  145  A    between atoms: _370  and  _373
REMARK  146  A    between atoms: _373  and  _374
REMARK  147  A    between atoms: _379  and  _380
REMARK  148  A    between atoms: _382  and  _384
REMARK  149  A    between atoms: _384  and  _385
REMARK  150  A    between atoms: _384  and  _387
REMARK  151  A    between atoms: _387  and  _388
REMARK  152  A    between atoms: _391  and  _393
REMARK  153  A    between atoms: _393  and  _394
REMARK  154  A    between atoms: _393  and  _396
REMARK  155  A    between atoms: _396  and  _397
REMARK  156  A    between atoms: _407  and  _409
REMARK  157  A    between atoms: _409  and  _410
REMARK  158  A    between atoms: _409  and  _412
REMARK  159  A    between atoms: _412  and  _413
REMARK  160  A    between atoms: _413  and  _414
REMARK  161  A    between atoms: _419  and  _421
REMARK  162  A    between atoms: _421  and  _422
REMARK  163  A    between atoms: _424  and  _426
REMARK  164  A    between atoms: _426  and  _427
REMARK  165  A    between atoms: _426  and  _429
REMARK  166  A    between atoms: _433  and  _434
REMARK  167  A    between atoms: _439  and  _441
REMARK  168  A    between atoms: _441  and  _442
REMARK  169  A    between atoms: _441  and  _444
REMARK  170  A    between atoms: _444  and  _445
REMARK  171  A    between atoms: _451  and  _453
REMARK  172  A    between atoms: _453  and  _454
REMARK  173  A    between atoms: _453  and  _456
REMARK  174  A    between atoms: _456  and  _457
REMARK  175  A    between atoms: _462  and  _463
REMARK  176  A    between atoms: _465  and  _467
REMARK  177  A    between atoms: _467  and  _468
REMARK  178  A    between atoms: _470  and  _472
REMARK  179  A    between atoms: _472  and  _473
REMARK  180  A    between atoms: _472  and  _475
REMARK  181  A    between atoms: _475  and  _476
REMARK  182  A    between atoms: _476  and  _477
REMARK  183  A    between atoms: _477  and  _478
REMARK  184  A    between atoms: _487  and  _489
REMARK  185  A    between atoms: _489  and  _490
REMARK  186  A    between atoms: _489  and  _492
REMARK  187  A    between atoms: _492  and  _493
REMARK  188  A    between atoms: _496  and  _498
REMARK  189  A    between atoms: _498  and  _499
REMARK  190  A    between atoms: _498  and  _501
REMARK  191  A    between atoms: _501  and  _502
REMARK  192  A    between atoms: _502  and  _503
REMARK  193  A    between atoms: _506  and  _508
REMARK  194  A    between atoms: _508  and  _509
REMARK  195  A    between atoms: _508  and  _511
REMARK  196  A    between atoms: _511  and  _512
REMARK  197  A    between atoms: _512  and  _513
REMARK  198  A    between atoms: _513  and  _514
REMARK  199  A    between atoms: _523  and  _525
REMARK  200  A    between atoms: _525  and  _526
REMARK  201  A    between atoms: _525  and  _528
REMARK  202  A    between atoms: _528  and  _529
REMARK  203  A    between atoms: _532  and  _534
REMARK  204  A    between atoms: _534  and  _535
REMARK  205  A    between atoms: _534  and  _537
REMARK  206  A    between atoms: _537  and  _538
REMARK  207  A    between atoms: _538  and  _539
REMARK  208  A    between atoms: _539  and  _540
REMARK  209  A    between atoms: _540  and  _541
REMARK  210  A    between atoms: _545  and  _547
REMARK  211  A    between atoms: _547  and  _548
REMARK  212  A    between atoms: _547  and  _550
REMARK  213  A    between atoms: _550  and  _551
REMARK  214  A    between atoms: _554  and  _556
REMARK  215  A    between atoms: _556  and  _557
REMARK  216  A    between atoms: _556  and  _559
REMARK  217  A    between atoms: _559  and  _560
REMARK  218  A    between atoms: _560  and  _561
REMARK  219  A    between atoms: _561  and  _562
REMARK  220  A    between atoms: _571  and  _573
REMARK  221  A    between atoms: _573  and  _574
REMARK  222  A    between atoms: _573  and  _576
REMARK  223  A    between atoms: _576  and  _577
REMARK  224  A    between atoms: _580  and  _582
REMARK  225  A    between atoms: _582  and  _583
REMARK  226  A    between atoms: _586  and  _588
REMARK  227  A    between atoms: _588  and  _589
REMARK  228  A    between atoms: _588  and  _591
REMARK  229  A    between atoms: _591  and  _592
REMARK  230  A    between atoms: _594  and  _596
REMARK  231  A    between atoms: _596  and  _597
REMARK  232  A    between atoms: _596  and  _599
REMARK  233  A    between atoms: _599  and  _600
REMARK  234  A    between atoms: _600  and  _601
REMARK  235  A    between atoms: _603  and  _605
REMARK  236  A    between atoms: _605  and  _606
REMARK  237  A    between atoms: _605  and  _608
REMARK  238  A    between atoms: _608  and  _609
REMARK  239  A    between atoms: _615  and  _617
REMARK  240  A    between atoms: _617  and  _618
REMARK  241  A    between atoms: _617  and  _620
REMARK  242  A    between atoms: _620  and  _621
REMARK  243  A    between atoms: _631  and  _633
REMARK  244  A    between atoms: _633  and  _634
REMARK  245  A    between atoms: _633  and  _636
REMARK  246  A    between atoms: _636  and  _637
REMARK  247  A    between atoms: _642  and  _644
REMARK  248  A    between atoms: _644  and  _645
REMARK  249  A    between atoms: _644  and  _647
REMARK  250  A    between atoms: _647  and  _648
REMARK  251  A    between atoms: _648  and  _649
REMARK                            x       y       z     vdW  Elec       q    Type
REMARK                         _______ _______ _______ _____ _____    ______ ____
ROOT
ATOM      1  O   HOH     1      20.363  44.731  96.394  0.00  0.00    +0.000 OA
ENDROOT
TORSDOF 0
REMARK  Name = ../refined-set-2016/1ogg/1ogg_pocket.pdb
REMARK  251 active torsions:
REMARK  status: ('A' for Active; 'I' for Inactive)
REMARK    1  A    between atoms: _1  and  _3
REMARK    2  A    between atoms: _3  and  _4
REMARK    3  A    between atoms: _3  and  _6
REMARK    4  A    between atoms: _6  and  _7
REMARK    5  A    between atoms: _10  and  _12
REMARK    6  A    between atoms: _12  and  _13
REMARK    7  A    between atoms: _15  and  _17
REMARK    8  A    between atoms: _17  and  _18
REMARK    9  A    between atoms: _17  and  _20
REMARK   10  A    between atoms: _20  and  _21
REMARK   11  A    between atoms: _26  and  _27
REMARK   12  A    between atoms: _29  and  _31
REMARK   13  A    between atoms: _31  and  _32
REMARK   14  A    between atoms: _31  and  _34
REMARK   15  A    between atoms: _34  and  _35
REMARK   16  A    between atoms: _40  and  _41
REMARK   17  A    between atoms: _43  and  _45
REMARK   18  A    between atoms: _45  and  _46
REMARK   19  A    between atoms: _45  and  _48
REMARK   20  A    between atoms: _48  and  _49
REMARK   21  A    between atoms: _55  and  _57
REMARK   22  A    between atoms: _57  and  _58
REMARK   23  A    between atoms: _57  and  _60
REMARK   24  A    between atoms: _60  and  _61
REMARK   25  A    between atoms: _65  and  _66
REMARK   26  A    between atoms: _71  and  _73
REMARK   27  A    between atoms: _73  and  _74
REMARK   28  A    between atoms: _73  and  _76
REMARK   29  A    between atoms: _76  and  _77
REMARK   30  A    between atoms: _80  and  _82
REMARK   31  A    between atoms: _82  and  _83
REMARK   32  A    between atoms: _82  and  _85
REMARK   33  A    between atoms: _85  and  _86
REMARK   34  A    between atoms: _91  and  _93
REMARK   35  A    between atoms: _93  and  _94
REMARK   36  A    between atoms: _93  and  _96
REMARK   37  A    between atoms: _96  and  _97
REMARK   38  A    between atoms: _97  and  _98
REMARK   39  A    between atoms: _103  and  _105
REMARK   40  A    between atoms: _105  and  _106
REMARK   41  A    between atoms: _105  and  _108
REMARK   42  A    between atoms: _108  and  _109
REMARK   43  A    between atoms: _114  and  _116
REMARK   44  A    between atoms: _116  and  _117
REMARK   45  A    between atoms: _116  and  _119
REMARK   46  A    between atoms: _119  and  _120
REMARK   47  A    between atoms: _122  and  _124
REMARK   48  A    between atoms: _124  and  _125
REMARK   49  A    between atoms: _124  and  _127
REMARK   50  A    between atoms: _127  and  _128
REMARK   51  A    between atoms: _134  and  _136
REMARK   52  A    between atoms: _136  and  _137
REMARK   53  A    between atoms: _136  and  _139
REMARK   54  A    between atoms: _139  and  _140
REMARK   55  A    between atoms: _143  and  _145
REMARK   56  A    between atoms: _145  and  _146
REMARK   57  A    between atoms: _145  and  _148
REMARK   58  A    between atoms: _148  and  _149
REMARK   59  A    between atoms: _151  and  _153
REMARK   60  A    between atoms: _153  and  _154
REMARK   61  A    between atoms: _153  and  _156
REMARK   62  A    between atoms: _156  and  _157
REMARK   63  A    between atoms: _160  and  _162
REMARK   64  A    between atoms: _162  and  _163
REMARK   65  A    between atoms: _165  and  _167
REMARK   66  A    between atoms: _167  and  _168
REMARK   67  A    between atoms: _170  and  _172
REMARK   68  A    between atoms: _172  and  _173
REMARK   69  A    between atoms: _172  and  _175
REMARK   70  A    between atoms: _175  and  _176
REMARK   71  A    between atoms: _186  and  _188
REMARK   72  A    between atoms: _188  and  _189
REMARK   73  A    between atoms: _188  and  _191
REMARK   74  A    between atoms: _191  and  _192
REMARK   75  A    between atoms: _197  and  _198
REMARK   76  A    between atoms: _200  and  _202
REMARK   77  A    between atoms: _202  and  _203
REMARK   78  A    between atoms: _202  and  _205
REMARK   79  A    between atoms: _205  and  _206
REMARK   80  A    between atoms: _211  and  _212
REMARK   81  A    between atoms: _214  and  _216
REMARK   82  A    between atoms: _216  and  _217
REMARK   83  A    between atoms: _216  and  _219
REMARK   84  A    between atoms: _219  and  _220
REMARK   85  A    between atoms: _222  and  _224
REMARK   86  A    between atoms: _224  and  _225
REMARK   87  A    between atoms: _224  and  _227
REMARK   88  A    between atoms: _227  and  _228
REMARK   89  A    between atoms: _233  and  _235
REMARK   90  A    between atoms: _235  and  _236
REMARK   91  A    between atoms: _235  and  _238
REMARK   92  A    between atoms: _241  and  _243
REMARK   93  A    between atoms: _243  and  _244
REMARK   94  A    between atoms: _243  and  _246
REMARK   95  A    between atoms: _246  and  _247
REMARK   96  A    between atoms: _250  and  _252
REMARK   97  A    between atoms: _252  and  _253
REMARK   98  A    between atoms: _252  and  _255
REMARK   99  A    between atoms: _255  and  _256
REMARK  100  A    between atoms: _259  and  _261
REMARK  101  A    between atoms: _261  and  _262
REMARK  102  A    between atoms: _261  and  _264
REMARK  103  A    between atoms: _264  and  _265
REMARK  104  A    between atoms: _270  and  _272
REMARK  105  A    between atoms: _272  and  _273
REMARK  106  A    between atoms: _272  and  _275
REMARK  107  A    between atoms: _275  and  _276
REMARK  108  A    between atoms: _286  and  _288
REMARK  109  A    between atoms: _288  and  _289
REMARK  110  A    between atoms: _288  and  _291
REMARK  111  A    between atoms: _291  and  _292
REMARK  112  A    between atoms: _292  and  _293
REMARK  113  A    between atoms: _296  and  _298
REMARK  114  A    between atoms: _298  and  _299
REMARK  115  A    between atoms: _298  and  _301
REMARK  116  A    between atoms: _301  and  _302
REMARK  117  A    between atoms: _307  and  _308
REMARK  118  A    between atoms: _310  and  _312
REMARK  119  A    between atoms: _312  and  _313
REMARK  120  A    between atoms: _312  and  _315
REMARK  121  A    between atoms: _315  and  _316
REMARK  122  A    between atoms: _319  and  _321
REMARK  123  A    between atoms: _321  and  _322
REMARK  124  A    between atoms: _325  and  _327
REMARK  125  A    between atoms: _327  and  _328
REMARK  126  A    between atoms: _330  and  _332
REMARK  127  A    between atoms: _332  and  _333
REMARK  128  A    between atoms: _332  and  _335
REMARK  129  A    between atoms: _335  and  _336
REMARK  130  A    between atoms: _341  and  _343
REMARK  131  A    between atoms: _343  and  _344
REMARK  132  A    between atoms: _343  and  _346
REMARK  133  A    between atoms: _346  and  _347
REMARK  134  A    between atoms: _350  and  _352
REMARK  135  A    between atoms: _352  and  _353
REMARK  136  A    between atoms: _352  and  _355
REMARK  137  A    between atoms: _355  and  _356
REMARK  138  A    between atoms: _356  and  _357
REMARK  139  A    between atoms: _359  and  _361
REMARK  140  A    between atoms: _361  and  _362
REMARK  141  A    between atoms: _361  and  _364
REMARK  142  A    between atoms: _364  and  _365
REMARK  143  A    between atoms: _368  and  _370
REMARK  144  A    between atoms: _370  and  _371
REMARK  145  A    between atoms: _370  and  _373
REMARK  146  A    between atoms: _373  and  _374
REMARK  147  A    between atoms: _379  and  _380
REMARK  148  A    between atoms: _382  and  _384
REMARK  149  A    between atoms: _384  and  _385
REMARK  150  A    between atoms: _384  and  _387
REMARK  151  A    between atoms: _387  and  _388
REMARK  152  A    between atoms: _391  and  _393
REMARK  153  A    between atoms: _393  and  _394
REMARK  154  A    between atoms: _393  and  _396
REMARK  155  A    between atoms: _396  and  _397
REMARK  156  A    between atoms: _407  and  _409
REMARK  157  A    between atoms: _409  and  _410
REMARK  158  A    between atoms: _409  and  _412
REMARK  159  A    between atoms: _412  and  _413
REMARK  160  A    between atoms: _413  and  _414
REMARK  161  A    between atoms: _419  and  _421
REMARK  162  A    between atoms: _421  and  _422
REMARK  163  A    between atoms: _424  and  _426
REMARK  164  A    between atoms: _426  and  _427
REMARK  165  A    between atoms: _426  and  _429
REMARK  166  A    between atoms: _433  and  _434
REMARK  167  A    between atoms: _439  and  _441
REMARK  168  A    between atoms: _441  and  _442
REMARK  169  A    between atoms: _441  and  _444
REMARK  170  A    between atoms: _444  and  _445
REMARK  171  A    between atoms: _451  and  _453
REMARK  172  A    between atoms: _453  and  _454
REMARK  173  A    between atoms: _453  and  _456
REMARK  174  A    between atoms: _456  and  _457
REMARK  175  A    between atoms: _462  and  _463
REMARK  176  A    between atoms: _465  and  _467
REMARK  177  A    between atoms: _467  and  _468
REMARK  178  A    between atoms: _470  and  _472
REMARK  179  A    between atoms: _472  and  _473
REMARK  180  A    between atoms: _472  and  _475
REMARK  181  A    between atoms: _475  and  _476
REMARK  182  A    between atoms: _476  and  _477
REMARK  183  A    between atoms: _477  and  _478
REMARK  184  A    between atoms: _487  and  _489
REMARK  185  A    between atoms: _489  and  _490
REMARK  186  A    between atoms: _489  and  _492
REMARK  187  A    between atoms: _492  and  _493
REMARK  188  A    between atoms: _496  and  _498
REMARK  189  A    between atoms: _498  and  _499
REMARK  190  A    between atoms: _498  and  _501
REMARK  191  A    between atoms: _501  and  _502
REMARK  192  A    between atoms: _502  and  _503
REMARK  193  A    between atoms: _506  and  _508
REMARK  194  A    between atoms: _508  and  _509
REMARK  195  A    between atoms: _508  and  _511
REMARK  196  A    between atoms: _511  and  _512
REMARK  197  A    between atoms: _512  and  _513
REMARK  198  A    between atoms: _513  and  _514
REMARK  199  A    between atoms: _523  and  _525
REMARK  200  A    between atoms: _525  and  _526
REMARK  201  A    between atoms: _525  and  _528
REMARK  202  A    between atoms: _528  and  _529
REMARK  203  A    between atoms: _532  and  _534
REMARK  204  A    between atoms: _534  and  _535
REMARK  205  A    between atoms: _534  and  _537
REMARK  206  A    between atoms: _537  and  _538
REMARK  207  A    between atoms: _538  and  _539
REMARK  208  A    between atoms: _539  and  _540
REMARK  209  A    between atoms: _540  and  _541
REMARK  210  A    between atoms: _545  and  _547
REMARK  211  A    between atoms: _547  and  _548
REMARK  212  A    between atoms: _547  and  _550
REMARK  213  A    between atoms: _550  and  _551
REMARK  214  A    between atoms: _554  and  _556
REMARK  215  A    between atoms: _556  and  _557
REMARK  216  A    between atoms: _556  and  _559
REMARK  217  A    between atoms: _559  and  _560
REMARK  218  A    between atoms: _560  and  _561
REMARK  219  A    between atoms: _561  and  _562
REMARK  220  A    between atoms: _571  and  _573
REMARK  221  A    between atoms: _573  and  _574
REMARK  222  A    between atoms: _573  and  _576
REMARK  223  A    between atoms: _576  and  _577
REMARK  224  A    between atoms: _580  and  _582
REMARK  225  A    between atoms: _582  and  _583
REMARK  226  A    between atoms: _586  and  _588
REMARK  227  A    between atoms: _588  and  _589
REMARK  228  A    between atoms: _588  and  _591
REMARK  229  A    between atoms: _591  and  _592
REMARK  230  A    between atoms: _594  and  _596
REMARK  231  A    between atoms: _596  and  _597
REMARK  232  A    between atoms: _596  and  _599
REMARK  233  A    between atoms: _599  and  _600
REMARK  234  A    between atoms: _600  and  _601
REMARK  235  A    between atoms: _603  and  _605
REMARK  236  A    between atoms: _605  and  _606
REMARK  237  A    between atoms: _605  and  _608
REMARK  238  A    between atoms: _608  and  _609
REMARK  239  A    between atoms: _615  and  _617
REMARK  240  A    between atoms: _617  and  _618
REMARK  241  A    between atoms: _617  and  _620
REMARK  242  A    between atoms: _620  and  _621
REMARK  243  A    between atoms: _631  and  _633
REMARK  244  A    between atoms: _633  and  _634
REMARK  245  A    between atoms: _633  and  _636
REMARK  246  A    between atoms: _636  and  _637
REMARK  247  A    between atoms: _642  and  _644
REMARK  248  A    between atoms: _644  and  _645
REMARK  249  A    between atoms: _644  and  _647
REMARK  250  A    between atoms: _647  and  _648
REMARK  251  A    between atoms: _648  and  _649
REMARK                            x       y       z     vdW  Elec       q    Type
REMARK                         _______ _______ _______ _____ _____    ______ ____
ROOT
ATOM      1  O   HOH     1      23.621  47.178  96.756  0.00  0.00    +0.000 OA
ENDROOT
TORSDOF 0
REMARK  Name = ../refined-set-2016/1ogg/1ogg_pocket.pdb
REMARK  251 active torsions:
REMARK  status: ('A' for Active; 'I' for Inactive)
REMARK    1  A    between atoms: _1  and  _3
REMARK    2  A    between atoms: _3  and  _4
REMARK    3  A    between atoms: _3  and  _6
REMARK    4  A    between atoms: _6  and  _7
REMARK    5  A    between atoms: _10  and  _12
REMARK    6  A    between atoms: _12  and  _13
REMARK    7  A    between atoms: _15  and  _17
REMARK    8  A    between atoms: _17  and  _18
REMARK    9  A    between atoms: _17  and  _20
REMARK   10  A    between atoms: _20  and  _21
REMARK   11  A    between atoms: _26  and  _27
REMARK   12  A    between atoms: _29  and  _31
REMARK   13  A    between atoms: _31  and  _32
REMARK   14  A    between atoms: _31  and  _34
REMARK   15  A    between atoms: _34  and  _35
REMARK   16  A    between atoms: _40  and  _41
REMARK   17  A    between atoms: _43  and  _45
REMARK   18  A    between atoms: _45  and  _46
REMARK   19  A    between atoms: _45  and  _48
REMARK   20  A    between atoms: _48  and  _49
REMARK   21  A    between atoms: _55  and  _57
REMARK   22  A    between atoms: _57  and  _58
REMARK   23  A    between atoms: _57  and  _60
REMARK   24  A    between atoms: _60  and  _61
REMARK   25  A    between atoms: _65  and  _66
REMARK   26  A    between atoms: _71  and  _73
REMARK   27  A    between atoms: _73  and  _74
REMARK   28  A    between atoms: _73  and  _76
REMARK   29  A    between atoms: _76  and  _77
REMARK   30  A    between atoms: _80  and  _82
REMARK   31  A    between atoms: _82  and  _83
REMARK   32  A    between atoms: _82  and  _85
REMARK   33  A    between atoms: _85  and  _86
REMARK   34  A    between atoms: _91  and  _93
REMARK   35  A    between atoms: _93  and  _94
REMARK   36  A    between atoms: _93  and  _96
REMARK   37  A    between atoms: _96  and  _97
REMARK   38  A    between atoms: _97  and  _98
REMARK   39  A    between atoms: _103  and  _105
REMARK   40  A    between atoms: _105  and  _106
REMARK   41  A    between atoms: _105  and  _108
REMARK   42  A    between atoms: _108  and  _109
REMARK   43  A    between atoms: _114  and  _116
REMARK   44  A    between atoms: _116  and  _117
REMARK   45  A    between atoms: _116  and  _119
REMARK   46  A    between atoms: _119  and  _120
REMARK   47  A    between atoms: _122  and  _124
REMARK   48  A    between atoms: _124  and  _125
REMARK   49  A    between atoms: _124  and  _127
REMARK   50  A    between atoms: _127  and  _128
REMARK   51  A    between atoms: _134  and  _136
REMARK   52  A    between atoms: _136  and  _137
REMARK   53  A    between atoms: _136  and  _139
REMARK   54  A    between atoms: _139  and  _140
REMARK   55  A    between atoms: _143  and  _145
REMARK   56  A    between atoms: _145  and  _146
REMARK   57  A    between atoms: _145  and  _148
REMARK   58  A    between atoms: _148  and  _149
REMARK   59  A    between atoms: _151  and  _153
REMARK   60  A    between atoms: _153  and  _154
REMARK   61  A    between atoms: _153  and  _156
REMARK   62  A    between atoms: _156  and  _157
REMARK   63  A    between atoms: _160  and  _162
REMARK   64  A    between atoms: _162  and  _163
REMARK   65  A    between atoms: _165  and  _167
REMARK   66  A    between atoms: _167  and  _168
REMARK   67  A    between atoms: _170  and  _172
REMARK   68  A    between atoms: _172  and  _173
REMARK   69  A    between atoms: _172  and  _175
REMARK   70  A    between atoms: _175  and  _176
REMARK   71  A    between atoms: _186  and  _188
REMARK   72  A    between atoms: _188  and  _189
REMARK   73  A    between atoms: _188  and  _191
REMARK   74  A    between atoms: _191  and  _192
REMARK   75  A    between atoms: _197  and  _198
REMARK   76  A    between atoms: _200  and  _202
REMARK   77  A    between atoms: _202  and  _203
REMARK   78  A    between atoms: _202  and  _205
REMARK   79  A    between atoms: _205  and  _206
REMARK   80  A    between atoms: _211  and  _212
REMARK   81  A    between atoms: _214  and  _216
REMARK   82  A    between atoms: _216  and  _217
REMARK   83  A    between atoms: _216  and  _219
REMARK   84  A    between atoms: _219  and  _220
REMARK   85  A    between atoms: _222  and  _224
REMARK   86  A    between atoms: _224  and  _225
REMARK   87  A    between atoms: _224  and  _227
REMARK   88  A    between atoms: _227  and  _228
REMARK   89  A    between atoms: _233  and  _235
REMARK   90  A    between atoms: _235  and  _236
REMARK   91  A    between atoms: _235  and  _238
REMARK   92  A    between atoms: _241  and  _243
REMARK   93  A    between atoms: _243  and  _244
REMARK   94  A    between atoms: _243  and  _246
REMARK   95  A    between atoms: _246  and  _247
REMARK   96  A    between atoms: _250  and  _252
REMARK   97  A    between atoms: _252  and  _253
REMARK   98  A    between atoms: _252  and  _255
REMARK   99  A    between atoms: _255  and  _256
REMARK  100  A    between atoms: _259  and  _261
REMARK  101  A    between atoms: _261  and  _262
REMARK  102  A    between atoms: _261  and  _264
REMARK  103  A    between atoms: _264  and  _265
REMARK  104  A    between atoms: _270  and  _272
REMARK  105  A    between atoms: _272  and  _273
REMARK  106  A    between atoms: _272  and  _275
REMARK  107  A    between atoms: _275  and  _276
REMARK  108  A    between atoms: _286  and  _288
REMARK  109  A    between atoms: _288  and  _289
REMARK  110  A    between atoms: _288  and  _291
REMARK  111  A    between atoms: _291  and  _292
REMARK  112  A    between atoms: _292  and  _293
REMARK  113  A    between atoms: _296  and  _298
REMARK  114  A    between atoms: _298  and  _299
REMARK  115  A    between atoms: _298  and  _301
REMARK  116  A    between atoms: _301  and  _302
REMARK  117  A    between atoms: _307  and  _308
REMARK  118  A    between atoms: _310  and  _312
REMARK  119  A    between atoms: _312  and  _313
REMARK  120  A    between atoms: _312  and  _315
REMARK  121  A    between atoms: _315  and  _316
REMARK  122  A    between atoms: _319  and  _321
REMARK  123  A    between atoms: _321  and  _322
REMARK  124  A    between atoms: _325  and  _327
REMARK  125  A    between atoms: _327  and  _328
REMARK  126  A    between atoms: _330  and  _332
REMARK  127  A    between atoms: _332  and  _333
REMARK  128  A    between atoms: _332  and  _335
REMARK  129  A    between atoms: _335  and  _336
REMARK  130  A    between atoms: _341  and  _343
REMARK  131  A    between atoms: _343  and  _344
REMARK  132  A    between atoms: _343  and  _346
REMARK  133  A    between atoms: _346  and  _347
REMARK  134  A    between atoms: _350  and  _352
REMARK  135  A    between atoms: _352  and  _353
REMARK  136  A    between atoms: _352  and  _355
REMARK  137  A    between atoms: _355  and  _356
REMARK  138  A    between atoms: _356  and  _357
REMARK  139  A    between atoms: _359  and  _361
REMARK  140  A    between atoms: _361  and  _362
REMARK  141  A    between atoms: _361  and  _364
REMARK  142  A    between atoms: _364  and  _365
REMARK  143  A    between atoms: _368  and  _370
REMARK  144  A    between atoms: _370  and  _371
REMARK  145  A    between atoms: _370  and  _373
REMARK  146  A    between atoms: _373  and  _374
REMARK  147  A    between atoms: _379  and  _380
REMARK  148  A    between atoms: _382  and  _384
REMARK  149  A    between atoms: _384  and  _385
REMARK  150  A    between atoms: _384  and  _387
REMARK  151  A    between atoms: _387  and  _388
REMARK  152  A    between atoms: _391  and  _393
REMARK  153  A    between atoms: _393  and  _394
REMARK  154  A    between atoms: _393  and  _396
REMARK  155  A    between atoms: _396  and  _397
REMARK  156  A    between atoms: _407  and  _409
REMARK  157  A    between atoms: _409  and  _410
REMARK  158  A    between atoms: _409  and  _412
REMARK  159  A    between atoms: _412  and  _413
REMARK  160  A    between atoms: _413  and  _414
REMARK  161  A    between atoms: _419  and  _421
REMARK  162  A    between atoms: _421  and  _422
REMARK  163  A    between atoms: _424  and  _426
REMARK  164  A    between atoms: _426  and  _427
REMARK  165  A    between atoms: _426  and  _429
REMARK  166  A    between atoms: _433  and  _434
REMARK  167  A    between atoms: _439  and  _441
REMARK  168  A    between atoms: _441  and  _442
REMARK  169  A    between atoms: _441  and  _444
REMARK  170  A    between atoms: _444  and  _445
REMARK  171  A    between atoms: _451  and  _453
REMARK  172  A    between atoms: _453  and  _454
REMARK  173  A    between atoms: _453  and  _456
REMARK  174  A    between atoms: _456  and  _457
REMARK  175  A    between atoms: _462  and  _463
REMARK  176  A    between atoms: _465  and  _467
REMARK  177  A    between atoms: _467  and  _468
REMARK  178  A    between atoms: _470  and  _472
REMARK  179  A    between atoms: _472  and  _473
REMARK  180  A    between atoms: _472  and  _475
REMARK  181  A    between atoms: _475  and  _476
REMARK  182  A    between atoms: _476  and  _477
REMARK  183  A    between atoms: _477  and  _478
REMARK  184  A    between atoms: _487  and  _489
REMARK  185  A    between atoms: _489  and  _490
REMARK  186  A    between atoms: _489  and  _492
REMARK  187  A    between atoms: _492  and  _493
REMARK  188  A    between atoms: _496  and  _498
REMARK  189  A    between atoms: _498  and  _499
REMARK  190  A    between atoms: _498  and  _501
REMARK  191  A    between atoms: _501  and  _502
REMARK  192  A    between atoms: _502  and  _503
REMARK  193  A    between atoms: _506  and  _508
REMARK  194  A    between atoms: _508  and  _509
REMARK  195  A    between atoms: _508  and  _511
REMARK  196  A    between atoms: _511  and  _512
REMARK  197  A    between atoms: _512  and  _513
REMARK  198  A    between atoms: _513  and  _514
REMARK  199  A    between atoms: _523  and  _525
REMARK  200  A    between atoms: _525  and  _526
REMARK  201  A    between atoms: _525  and  _528
REMARK  202  A    between atoms: _528  and  _529
REMARK  203  A    between atoms: _532  and  _534
REMARK  204  A    between atoms: _534  and  _535
REMARK  205  A    between atoms: _534  and  _537
REMARK  206  A    between atoms: _537  and  _538
REMARK  207  A    between atoms: _538  and  _539
REMARK  208  A    between atoms: _539  and  _540
REMARK  209  A    between atoms: _540  and  _541
REMARK  210  A    between atoms: _545  and  _547
REMARK  211  A    between atoms: _547  and  _548
REMARK  212  A    between atoms: _547  and  _550
REMARK  213  A    between atoms: _550  and  _551
REMARK  214  A    between atoms: _554  and  _556
REMARK  215  A    between atoms: _556  and  _557
REMARK  216  A    between atoms: _556  and  _559
REMARK  217  A    between atoms: _559  and  _560
REMARK  218  A    between atoms: _560  and  _561
REMARK  219  A    between atoms: _561  and  _562
REMARK  220  A    between atoms: _571  and  _573
REMARK  221  A    between atoms: _573  and  _574
REMARK  222  A    between atoms: _573  and  _576
REMARK  223  A    between atoms: _576  and  _577
REMARK  224  A    between atoms: _580  and  _582
REMARK  225  A    between atoms: _582  and  _583
REMARK  226  A    between atoms: _586  and  _588
REMARK  227  A    between atoms: _588  and  _589
REMARK  228  A    between atoms: _588  and  _591
REMARK  229  A    between atoms: _591  and  _592
REMARK  230  A    between atoms: _594  and  _596
REMARK  231  A    between atoms: _596  and  _597
REMARK  232  A    between atoms: _596  and  _599
REMARK  233  A    between atoms: _599  and  _600
REMARK  234  A    between atoms: _600  and  _601
REMARK  235  A    between atoms: _603  and  _605
REMARK  236  A    between atoms: _605  and  _606
REMARK  237  A    between atoms: _605  and  _608
REMARK  238  A    between atoms: _608  and  _609
REMARK  239  A    between atoms: _615  and  _617
REMARK  240  A    between atoms: _617  and  _618
REMARK  241  A    between atoms: _617  and  _620
REMARK  242  A    between atoms: _620  and  _621
REMARK  243  A    between atoms: _631  and  _633
REMARK  244  A    between atoms: _633  and  _634
REMARK  245  A    between atoms: _633  and  _636
REMARK  246  A    between atoms: _636  and  _637
REMARK  247  A    between atoms: _642  and  _644
REMARK  248  A    between atoms: _644  and  _645
REMARK  249  A    between atoms: _644  and  _647
REMARK  250  A    between atoms: _647  and  _648
REMARK  251  A    between atoms: _648  and  _649
REMARK                            x       y       z     vdW  Elec       q    Type
REMARK                         _______ _______ _______ _____ _____    ______ ____
ROOT
ATOM      1  O   HOH     1      23.883  45.394  98.202  0.00  0.00    +0.000 OA
ENDROOT
TORSDOF 0
REMARK  Name = ../refined-set-2016/1ogg/1ogg_pocket.pdb
REMARK  251 active torsions:
REMARK  status: ('A' for Active; 'I' for Inactive)
REMARK    1  A    between atoms: _1  and  _3
REMARK    2  A    between atoms: _3  and  _4
REMARK    3  A    between atoms: _3  and  _6
REMARK    4  A    between atoms: _6  and  _7
REMARK    5  A    between atoms: _10  and  _12
REMARK    6  A    between atoms: _12  and  _13
REMARK    7  A    between atoms: _15  and  _17
REMARK    8  A    between atoms: _17  and  _18
REMARK    9  A    between atoms: _17  and  _20
REMARK   10  A    between atoms: _20  and  _21
REMARK   11  A    between atoms: _26  and  _27
REMARK   12  A    between atoms: _29  and  _31
REMARK   13  A    between atoms: _31  and  _32
REMARK   14  A    between atoms: _31  and  _34
REMARK   15  A    between atoms: _34  and  _35
REMARK   16  A    between atoms: _40  and  _41
REMARK   17  A    between atoms: _43  and  _45
REMARK   18  A    between atoms: _45  and  _46
REMARK   19  A    between atoms: _45  and  _48
REMARK   20  A    between atoms: _48  and  _49
REMARK   21  A    between atoms: _55  and  _57
REMARK   22  A    between atoms: _57  and  _58
REMARK   23  A    between atoms: _57  and  _60
REMARK   24  A    between atoms: _60  and  _61
REMARK   25  A    between atoms: _65  and  _66
REMARK   26  A    between atoms: _71  and  _73
REMARK   27  A    between atoms: _73  and  _74
REMARK   28  A    between atoms: _73  and  _76
REMARK   29  A    between atoms: _76  and  _77
REMARK   30  A    between atoms: _80  and  _82
REMARK   31  A    between atoms: _82  and  _83
REMARK   32  A    between atoms: _82  and  _85
REMARK   33  A    between atoms: _85  and  _86
REMARK   34  A    between atoms: _91  and  _93
REMARK   35  A    between atoms: _93  and  _94
REMARK   36  A    between atoms: _93  and  _96
REMARK   37  A    between atoms: _96  and  _97
REMARK   38  A    between atoms: _97  and  _98
REMARK   39  A    between atoms: _103  and  _105
REMARK   40  A    between atoms: _105  and  _106
REMARK   41  A    between atoms: _105  and  _108
REMARK   42  A    between atoms: _108  and  _109
REMARK   43  A    between atoms: _114  and  _116
REMARK   44  A    between atoms: _116  and  _117
REMARK   45  A    between atoms: _116  and  _119
REMARK   46  A    between atoms: _119  and  _120
REMARK   47  A    between atoms: _122  and  _124
REMARK   48  A    between atoms: _124  and  _125
REMARK   49  A    between atoms: _124  and  _127
REMARK   50  A    between atoms: _127  and  _128
REMARK   51  A    between atoms: _134  and  _136
REMARK   52  A    between atoms: _136  and  _137
REMARK   53  A    between atoms: _136  and  _139
REMARK   54  A    between atoms: _139  and  _140
REMARK   55  A    between atoms: _143  and  _145
REMARK   56  A    between atoms: _145  and  _146
REMARK   57  A    between atoms: _145  and  _148
REMARK   58  A    between atoms: _148  and  _149
REMARK   59  A    between atoms: _151  and  _153
REMARK   60  A    between atoms: _153  and  _154
REMARK   61  A    between atoms: _153  and  _156
REMARK   62  A    between atoms: _156  and  _157
REMARK   63  A    between atoms: _160  and  _162
REMARK   64  A    between atoms: _162  and  _163
REMARK   65  A    between atoms: _165  and  _167
REMARK   66  A    between atoms: _167  and  _168
REMARK   67  A    between atoms: _170  and  _172
REMARK   68  A    between atoms: _172  and  _173
REMARK   69  A    between atoms: _172  and  _175
REMARK   70  A    between atoms: _175  and  _176
REMARK   71  A    between atoms: _186  and  _188
REMARK   72  A    between atoms: _188  and  _189
REMARK   73  A    between atoms: _188  and  _191
REMARK   74  A    between atoms: _191  and  _192
REMARK   75  A    between atoms: _197  and  _198
REMARK   76  A    between atoms: _200  and  _202
REMARK   77  A    between atoms: _202  and  _203
REMARK   78  A    between atoms: _202  and  _205
REMARK   79  A    between atoms: _205  and  _206
REMARK   80  A    between atoms: _211  and  _212
REMARK   81  A    between atoms: _214  and  _216
REMARK   82  A    between atoms: _216  and  _217
REMARK   83  A    between atoms: _216  and  _219
REMARK   84  A    between atoms: _219  and  _220
REMARK   85  A    between atoms: _222  and  _224
REMARK   86  A    between atoms: _224  and  _225
REMARK   87  A    between atoms: _224  and  _227
REMARK   88  A    between atoms: _227  and  _228
REMARK   89  A    between atoms: _233  and  _235
REMARK   90  A    between atoms: _235  and  _236
REMARK   91  A    between atoms: _235  and  _238
REMARK   92  A    between atoms: _241  and  _243
REMARK   93  A    between atoms: _243  and  _244
REMARK   94  A    between atoms: _243  and  _246
REMARK   95  A    between atoms: _246  and  _247
REMARK   96  A    between atoms: _250  and  _252
REMARK   97  A    between atoms: _252  and  _253
REMARK   98  A    between atoms: _252  and  _255
REMARK   99  A    between atoms: _255  and  _256
REMARK  100  A    between atoms: _259  and  _261
REMARK  101  A    between atoms: _261  and  _262
REMARK  102  A    between atoms: _261  and  _264
REMARK  103  A    between atoms: _264  and  _265
REMARK  104  A    between atoms: _270  and  _272
REMARK  105  A    between atoms: _272  and  _273
REMARK  106  A    between atoms: _272  and  _275
REMARK  107  A    between atoms: _275  and  _276
REMARK  108  A    between atoms: _286  and  _288
REMARK  109  A    between atoms: _288  and  _289
REMARK  110  A    between atoms: _288  and  _291
REMARK  111  A    between atoms: _291  and  _292
REMARK  112  A    between atoms: _292  and  _293
REMARK  113  A    between atoms: _296  and  _298
REMARK  114  A    between atoms: _298  and  _299
REMARK  115  A    between atoms: _298  and  _301
REMARK  116  A    between atoms: _301  and  _302
REMARK  117  A    between atoms: _307  and  _308
REMARK  118  A    between atoms: _310  and  _312
REMARK  119  A    between atoms: _312  and  _313
REMARK  120  A    between atoms: _312  and  _315
REMARK  121  A    between atoms: _315  and  _316
REMARK  122  A    between atoms: _319  and  _321
REMARK  123  A    between atoms: _321  and  _322
REMARK  124  A    between atoms: _325  and  _327
REMARK  125  A    between atoms: _327  and  _328
REMARK  126  A    between atoms: _330  and  _332
REMARK  127  A    between atoms: _332  and  _333
REMARK  128  A    between atoms: _332  and  _335
REMARK  129  A    between atoms: _335  and  _336
REMARK  130  A    between atoms: _341  and  _343
REMARK  131  A    between atoms: _343  and  _344
REMARK  132  A    between atoms: _343  and  _346
REMARK  133  A    between atoms: _346  and  _347
REMARK  134  A    between atoms: _350  and  _352
REMARK  135  A    between atoms: _352  and  _353
REMARK  136  A    between atoms: _352  and  _355
REMARK  137  A    between atoms: _355  and  _356
REMARK  138  A    between atoms: _356  and  _357
REMARK  139  A    between atoms: _359  and  _361
REMARK  140  A    between atoms: _361  and  _362
REMARK  141  A    between atoms: _361  and  _364
REMARK  142  A    between atoms: _364  and  _365
REMARK  143  A    between atoms: _368  and  _370
REMARK  144  A    between atoms: _370  and  _371
REMARK  145  A    between atoms: _370  and  _373
REMARK  146  A    between atoms: _373  and  _374
REMARK  147  A    between atoms: _379  and  _380
REMARK  148  A    between atoms: _382  and  _384
REMARK  149  A    between atoms: _384  and  _385
REMARK  150  A    between atoms: _384  and  _387
REMARK  151  A    between atoms: _387  and  _388
REMARK  152  A    between atoms: _391  and  _393
REMARK  153  A    between atoms: _393  and  _394
REMARK  154  A    between atoms: _393  and  _396
REMARK  155  A    between atoms: _396  and  _397
REMARK  156  A    between atoms: _407  and  _409
REMARK  157  A    between atoms: _409  and  _410
REMARK  158  A    between atoms: _409  and  _412
REMARK  159  A    between atoms: _412  and  _413
REMARK  160  A    between atoms: _413  and  _414
REMARK  161  A    between atoms: _419  and  _421
REMARK  162  A    between atoms: _421  and  _422
REMARK  163  A    between atoms: _424  and  _426
REMARK  164  A    between atoms: _426  and  _427
REMARK  165  A    between atoms: _426  and  _429
REMARK  166  A    between atoms: _433  and  _434
REMARK  167  A    between atoms: _439  and  _441
REMARK  168  A    between atoms: _441  and  _442
REMARK  169  A    between atoms: _441  and  _444
REMARK  170  A    between atoms: _444  and  _445
REMARK  171  A    between atoms: _451  and  _453
REMARK  172  A    between atoms: _453  and  _454
REMARK  173  A    between atoms: _453  and  _456
REMARK  174  A    between atoms: _456  and  _457
REMARK  175  A    between atoms: _462  and  _463
REMARK  176  A    between atoms: _465  and  _467
REMARK  177  A    between atoms: _467  and  _468
REMARK  178  A    between atoms: _470  and  _472
REMARK  179  A    between atoms: _472  and  _473
REMARK  180  A    between atoms: _472  and  _475
REMARK  181  A    between atoms: _475  and  _476
REMARK  182  A    between atoms: _476  and  _477
REMARK  183  A    between atoms: _477  and  _478
REMARK  184  A    between atoms: _487  and  _489
REMARK  185  A    between atoms: _489  and  _490
REMARK  186  A    between atoms: _489  and  _492
REMARK  187  A    between atoms: _492  and  _493
REMARK  188  A    between atoms: _496  and  _498
REMARK  189  A    between atoms: _498  and  _499
REMARK  190  A    between atoms: _498  and  _501
REMARK  191  A    between atoms: _501  and  _502
REMARK  192  A    between atoms: _502  and  _503
REMARK  193  A    between atoms: _506  and  _508
REMARK  194  A    between atoms: _508  and  _509
REMARK  195  A    between atoms: _508  and  _511
REMARK  196  A    between atoms: _511  and  _512
REMARK  197  A    between atoms: _512  and  _513
REMARK  198  A    between atoms: _513  and  _514
REMARK  199  A    between atoms: _523  and  _525
REMARK  200  A    between atoms: _525  and  _526
REMARK  201  A    between atoms: _525  and  _528
REMARK  202  A    between atoms: _528  and  _529
REMARK  203  A    between atoms: _532  and  _534
REMARK  204  A    between atoms: _534  and  _535
REMARK  205  A    between atoms: _534  and  _537
REMARK  206  A    between atoms: _537  and  _538
REMARK  207  A    between atoms: _538  and  _539
REMARK  208  A    between atoms: _539  and  _540
REMARK  209  A    between atoms: _540  and  _541
REMARK  210  A    between atoms: _545  and  _547
REMARK  211  A    between atoms: _547  and  _548
REMARK  212  A    between atoms: _547  and  _550
REMARK  213  A    between atoms: _550  and  _551
REMARK  214  A    between atoms: _554  and  _556
REMARK  215  A    between atoms: _556  and  _557
REMARK  216  A    between atoms: _556  and  _559
REMARK  217  A    between atoms: _559  and  _560
REMARK  218  A    between atoms: _560  and  _561
REMARK  219  A    between atoms: _561  and  _562
REMARK  220  A    between atoms: _571  and  _573
REMARK  221  A    between atoms: _573  and  _574
REMARK  222  A    between atoms: _573  and  _576
REMARK  223  A    between atoms: _576  and  _577
REMARK  224  A    between atoms: _580  and  _582
REMARK  225  A    between atoms: _582  and  _583
REMARK  226  A    between atoms: _586  and  _588
REMARK  227  A    between atoms: _588  and  _589
REMARK  228  A    between atoms: _588  and  _591
REMARK  229  A    between atoms: _591  and  _592
REMARK  230  A    between atoms: _594  and  _596
REMARK  231  A    between atoms: _596  and  _597
REMARK  232  A    between atoms: _596  and  _599
REMARK  233  A    between atoms: _599  and  _600
REMARK  234  A    between atoms: _600  and  _601
REMARK  235  A    between atoms: _603  and  _605
REMARK  236  A    between atoms: _605  and  _606
REMARK  237  A    between atoms: _605  and  _608
REMARK  238  A    between atoms: _608  and  _609
REMARK  239  A    between atoms: _615  and  _617
REMARK  240  A    between atoms: _617  and  _618
REMARK  241  A    between atoms: _617  and  _620
REMARK  242  A    between atoms: _620  and  _621
REMARK  243  A    between atoms: _631  and  _633
REMARK  244  A    between atoms: _633  and  _634
REMARK  245  A    between atoms: _633  and  _636
REMARK  246  A    between atoms: _636  and  _637
REMARK  247  A    between atoms: _642  and  _644
REMARK  248  A    between atoms: _644  and  _645
REMARK  249  A    between atoms: _644  and  _647
REMARK  250  A    between atoms: _647  and  _648
REMARK  251  A    between atoms: _648  and  _649
REMARK                            x       y       z     vdW  Elec       q    Type
REMARK                         _______ _______ _______ _____ _____    ______ ____
ROOT
ATOM      1  O   HOH     1      24.230  33.739 100.045  0.00  0.00    +0.000 OA
ENDROOT
TORSDOF 0
REMARK  Name = ../refined-set-2016/1ogg/1ogg_pocket.pdb
REMARK  251 active torsions:
REMARK  status: ('A' for Active; 'I' for Inactive)
REMARK    1  A    between atoms: _1  and  _3
REMARK    2  A    between atoms: _3  and  _4
REMARK    3  A    between atoms: _3  and  _6
REMARK    4  A    between atoms: _6  and  _7
REMARK    5  A    between atoms: _10  and  _12
REMARK    6  A    between atoms: _12  and  _13
REMARK    7  A    between atoms: _15  and  _17
REMARK    8  A    between atoms: _17  and  _18
REMARK    9  A    between atoms: _17  and  _20
REMARK   10  A    between atoms: _20  and  _21
REMARK   11  A    between atoms: _26  and  _27
REMARK   12  A    between atoms: _29  and  _31
REMARK   13  A    between atoms: _31  and  _32
REMARK   14  A    between atoms: _31  and  _34
REMARK   15  A    between atoms: _34  and  _35
REMARK   16  A    between atoms: _40  and  _41
REMARK   17  A    between atoms: _43  and  _45
REMARK   18  A    between atoms: _45  and  _46
REMARK   19  A    between atoms: _45  and  _48
REMARK   20  A    between atoms: _48  and  _49
REMARK   21  A    between atoms: _55  and  _57
REMARK   22  A    between atoms: _57  and  _58
REMARK   23  A    between atoms: _57  and  _60
REMARK   24  A    between atoms: _60  and  _61
REMARK   25  A    between atoms: _65  and  _66
REMARK   26  A    between atoms: _71  and  _73
REMARK   27  A    between atoms: _73  and  _74
REMARK   28  A    between atoms: _73  and  _76
REMARK   29  A    between atoms: _76  and  _77
REMARK   30  A    between atoms: _80  and  _82
REMARK   31  A    between atoms: _82  and  _83
REMARK   32  A    between atoms: _82  and  _85
REMARK   33  A    between atoms: _85  and  _86
REMARK   34  A    between atoms: _91  and  _93
REMARK   35  A    between atoms: _93  and  _94
REMARK   36  A    between atoms: _93  and  _96
REMARK   37  A    between atoms: _96  and  _97
REMARK   38  A    between atoms: _97  and  _98
REMARK   39  A    between atoms: _103  and  _105
REMARK   40  A    between atoms: _105  and  _106
REMARK   41  A    between atoms: _105  and  _108
REMARK   42  A    between atoms: _108  and  _109
REMARK   43  A    between atoms: _114  and  _116
REMARK   44  A    between atoms: _116  and  _117
REMARK   45  A    between atoms: _116  and  _119
REMARK   46  A    between atoms: _119  and  _120
REMARK   47  A    between atoms: _122  and  _124
REMARK   48  A    between atoms: _124  and  _125
REMARK   49  A    between atoms: _124  and  _127
REMARK   50  A    between atoms: _127  and  _128
REMARK   51  A    between atoms: _134  and  _136
REMARK   52  A    between atoms: _136  and  _137
REMARK   53  A    between atoms: _136  and  _139
REMARK   54  A    between atoms: _139  and  _140
REMARK   55  A    between atoms: _143  and  _145
REMARK   56  A    between atoms: _145  and  _146
REMARK   57  A    between atoms: _145  and  _148
REMARK   58  A    between atoms: _148  and  _149
REMARK   59  A    between atoms: _151  and  _153
REMARK   60  A    between atoms: _153  and  _154
REMARK   61  A    between atoms: _153  and  _156
REMARK   62  A    between atoms: _156  and  _157
REMARK   63  A    between atoms: _160  and  _162
REMARK   64  A    between atoms: _162  and  _163
REMARK   65  A    between atoms: _165  and  _167
REMARK   66  A    between atoms: _167  and  _168
REMARK   67  A    between atoms: _170  and  _172
REMARK   68  A    between atoms: _172  and  _173
REMARK   69  A    between atoms: _172  and  _175
REMARK   70  A    between atoms: _175  and  _176
REMARK   71  A    between atoms: _186  and  _188
REMARK   72  A    between atoms: _188  and  _189
REMARK   73  A    between atoms: _188  and  _191
REMARK   74  A    between atoms: _191  and  _192
REMARK   75  A    between atoms: _197  and  _198
REMARK   76  A    between atoms: _200  and  _202
REMARK   77  A    between atoms: _202  and  _203
REMARK   78  A    between atoms: _202  and  _205
REMARK   79  A    between atoms: _205  and  _206
REMARK   80  A    between atoms: _211  and  _212
REMARK   81  A    between atoms: _214  and  _216
REMARK   82  A    between atoms: _216  and  _217
REMARK   83  A    between atoms: _216  and  _219
REMARK   84  A    between atoms: _219  and  _220
REMARK   85  A    between atoms: _222  and  _224
REMARK   86  A    between atoms: _224  and  _225
REMARK   87  A    between atoms: _224  and  _227
REMARK   88  A    between atoms: _227  and  _228
REMARK   89  A    between atoms: _233  and  _235
REMARK   90  A    between atoms: _235  and  _236
REMARK   91  A    between atoms: _235  and  _238
REMARK   92  A    between atoms: _241  and  _243
REMARK   93  A    between atoms: _243  and  _244
REMARK   94  A    between atoms: _243  and  _246
REMARK   95  A    between atoms: _246  and  _247
REMARK   96  A    between atoms: _250  and  _252
REMARK   97  A    between atoms: _252  and  _253
REMARK   98  A    between atoms: _252  and  _255
REMARK   99  A    between atoms: _255  and  _256
REMARK  100  A    between atoms: _259  and  _261
REMARK  101  A    between atoms: _261  and  _262
REMARK  102  A    between atoms: _261  and  _264
REMARK  103  A    between atoms: _264  and  _265
REMARK  104  A    between atoms: _270  and  _272
REMARK  105  A    between atoms: _272  and  _273
REMARK  106  A    between atoms: _272  and  _275
REMARK  107  A    between atoms: _275  and  _276
REMARK  108  A    between atoms: _286  and  _288
REMARK  109  A    between atoms: _288  and  _289
REMARK  110  A    between atoms: _288  and  _291
REMARK  111  A    between atoms: _291  and  _292
REMARK  112  A    between atoms: _292  and  _293
REMARK  113  A    between atoms: _296  and  _298
REMARK  114  A    between atoms: _298  and  _299
REMARK  115  A    between atoms: _298  and  _301
REMARK  116  A    between atoms: _301  and  _302
REMARK  117  A    between atoms: _307  and  _308
REMARK  118  A    between atoms: _310  and  _312
REMARK  119  A    between atoms: _312  and  _313
REMARK  120  A    between atoms: _312  and  _315
REMARK  121  A    between atoms: _315  and  _316
REMARK  122  A    between atoms: _319  and  _321
REMARK  123  A    between atoms: _321  and  _322
REMARK  124  A    between atoms: _325  and  _327
REMARK  125  A    between atoms: _327  and  _328
REMARK  126  A    between atoms: _330  and  _332
REMARK  127  A    between atoms: _332  and  _333
REMARK  128  A    between atoms: _332  and  _335
REMARK  129  A    between atoms: _335  and  _336
REMARK  130  A    between atoms: _341  and  _343
REMARK  131  A    between atoms: _343  and  _344
REMARK  132  A    between atoms: _343  and  _346
REMARK  133  A    between atoms: _346  and  _347
REMARK  134  A    between atoms: _350  and  _352
REMARK  135  A    between atoms: _352  and  _353
REMARK  136  A    between atoms: _352  and  _355
REMARK  137  A    between atoms: _355  and  _356
REMARK  138  A    between atoms: _356  and  _357
REMARK  139  A    between atoms: _359  and  _361
REMARK  140  A    between atoms: _361  and  _362
REMARK  141  A    between atoms: _361  and  _364
REMARK  142  A    between atoms: _364  and  _365
REMARK  143  A    between atoms: _368  and  _370
REMARK  144  A    between atoms: _370  and  _371
REMARK  145  A    between atoms: _370  and  _373
REMARK  146  A    between atoms: _373  and  _374
REMARK  147  A    between atoms: _379  and  _380
REMARK  148  A    between atoms: _382  and  _384
REMARK  149  A    between atoms: _384  and  _385
REMARK  150  A    between atoms: _384  and  _387
REMARK  151  A    between atoms: _387  and  _388
REMARK  152  A    between atoms: _391  and  _393
REMARK  153  A    between atoms: _393  and  _394
REMARK  154  A    between atoms: _393  and  _396
REMARK  155  A    between atoms: _396  and  _397
REMARK  156  A    between atoms: _407  and  _409
REMARK  157  A    between atoms: _409  and  _410
REMARK  158  A    between atoms: _409  and  _412
REMARK  159  A    between atoms: _412  and  _413
REMARK  160  A    between atoms: _413  and  _414
REMARK  161  A    between atoms: _419  and  _421
REMARK  162  A    between atoms: _421  and  _422
REMARK  163  A    between atoms: _424  and  _426
REMARK  164  A    between atoms: _426  and  _427
REMARK  165  A    between atoms: _426  and  _429
REMARK  166  A    between atoms: _433  and  _434
REMARK  167  A    between atoms: _439  and  _441
REMARK  168  A    between atoms: _441  and  _442
REMARK  169  A    between atoms: _441  and  _444
REMARK  170  A    between atoms: _444  and  _445
REMARK  171  A    between atoms: _451  and  _453
REMARK  172  A    between atoms: _453  and  _454
REMARK  173  A    between atoms: _453  and  _456
REMARK  174  A    between atoms: _456  and  _457
REMARK  175  A    between atoms: _462  and  _463
REMARK  176  A    between atoms: _465  and  _467
REMARK  177  A    between atoms: _467  and  _468
REMARK  178  A    between atoms: _470  and  _472
REMARK  179  A    between atoms: _472  and  _473
REMARK  180  A    between atoms: _472  and  _475
REMARK  181  A    between atoms: _475  and  _476
REMARK  182  A    between atoms: _476  and  _477
REMARK  183  A    between atoms: _477  and  _478
REMARK  184  A    between atoms: _487  and  _489
REMARK  185  A    between atoms: _489  and  _490
REMARK  186  A    between atoms: _489  and  _492
REMARK  187  A    between atoms: _492  and  _493
REMARK  188  A    between atoms: _496  and  _498
REMARK  189  A    between atoms: _498  and  _499
REMARK  190  A    between atoms: _498  and  _501
REMARK  191  A    between atoms: _501  and  _502
REMARK  192  A    between atoms: _502  and  _503
REMARK  193  A    between atoms: _506  and  _508
REMARK  194  A    between atoms: _508  and  _509
REMARK  195  A    between atoms: _508  and  _511
REMARK  196  A    between atoms: _511  and  _512
REMARK  197  A    between atoms: _512  and  _513
REMARK  198  A    between atoms: _513  and  _514
REMARK  199  A    between atoms: _523  and  _525
REMARK  200  A    between atoms: _525  and  _526
REMARK  201  A    between atoms: _525  and  _528
REMARK  202  A    between atoms: _528  and  _529
REMARK  203  A    between atoms: _532  and  _534
REMARK  204  A    between atoms: _534  and  _535
REMARK  205  A    between atoms: _534  and  _537
REMARK  206  A    between atoms: _537  and  _538
REMARK  207  A    between atoms: _538  and  _539
REMARK  208  A    between atoms: _539  and  _540
REMARK  209  A    between atoms: _540  and  _541
REMARK  210  A    between atoms: _545  and  _547
REMARK  211  A    between atoms: _547  and  _548
REMARK  212  A    between atoms: _547  and  _550
REMARK  213  A    between atoms: _550  and  _551
REMARK  214  A    between atoms: _554  and  _556
REMARK  215  A    between atoms: _556  and  _557
REMARK  216  A    between atoms: _556  and  _559
REMARK  217  A    between atoms: _559  and  _560
REMARK  218  A    between atoms: _560  and  _561
REMARK  219  A    between atoms: _561  and  _562
REMARK  220  A    between atoms: _571  and  _573
REMARK  221  A    between atoms: _573  and  _574
REMARK  222  A    between atoms: _573  and  _576
REMARK  223  A    between atoms: _576  and  _577
REMARK  224  A    between atoms: _580  and  _582
REMARK  225  A    between atoms: _582  and  _583
REMARK  226  A    between atoms: _586  and  _588
REMARK  227  A    between atoms: _588  and  _589
REMARK  228  A    between atoms: _588  and  _591
REMARK  229  A    between atoms: _591  and  _592
REMARK  230  A    between atoms: _594  and  _596
REMARK  231  A    between atoms: _596  and  _597
REMARK  232  A    between atoms: _596  and  _599
REMARK  233  A    between atoms: _599  and  _600
REMARK  234  A    between atoms: _600  and  _601
REMARK  235  A    between atoms: _603  and  _605
REMARK  236  A    between atoms: _605  and  _606
REMARK  237  A    between atoms: _605  and  _608
REMARK  238  A    between atoms: _608  and  _609
REMARK  239  A    between atoms: _615  and  _617
REMARK  240  A    between atoms: _617  and  _618
REMARK  241  A    between atoms: _617  and  _620
REMARK  242  A    between atoms: _620  and  _621
REMARK  243  A    between atoms: _631  and  _633
REMARK  244  A    between atoms: _633  and  _634
REMARK  245  A    between atoms: _633  and  _636
REMARK  246  A    between atoms: _636  and  _637
REMARK  247  A    between atoms: _642  and  _644
REMARK  248  A    between atoms: _644  and  _645
REMARK  249  A    between atoms: _644  and  _647
REMARK  250  A    between atoms: _647  and  _648
REMARK  251  A    between atoms: _648  and  _649
REMARK                            x       y       z     vdW  Elec       q    Type
REMARK                         _______ _______ _______ _____ _____    ______ ____
ROOT
ATOM      1  O   HOH     1      18.815  34.927 112.684  0.00  0.00    +0.000 OA
ENDROOT
TORSDOF 0
REMARK  Name = ../refined-set-2016/1ogg/1ogg_pocket.pdb
REMARK  251 active torsions:
REMARK  status: ('A' for Active; 'I' for Inactive)
REMARK    1  A    between atoms: _1  and  _3
REMARK    2  A    between atoms: _3  and  _4
REMARK    3  A    between atoms: _3  and  _6
REMARK    4  A    between atoms: _6  and  _7
REMARK    5  A    between atoms: _10  and  _12
REMARK    6  A    between atoms: _12  and  _13
REMARK    7  A    between atoms: _15  and  _17
REMARK    8  A    between atoms: _17  and  _18
REMARK    9  A    between atoms: _17  and  _20
REMARK   10  A    between atoms: _20  and  _21
REMARK   11  A    between atoms: _26  and  _27
REMARK   12  A    between atoms: _29  and  _31
REMARK   13  A    between atoms: _31  and  _32
REMARK   14  A    between atoms: _31  and  _34
REMARK   15  A    between atoms: _34  and  _35
REMARK   16  A    between atoms: _40  and  _41
REMARK   17  A    between atoms: _43  and  _45
REMARK   18  A    between atoms: _45  and  _46
REMARK   19  A    between atoms: _45  and  _48
REMARK   20  A    between atoms: _48  and  _49
REMARK   21  A    between atoms: _55  and  _57
REMARK   22  A    between atoms: _57  and  _58
REMARK   23  A    between atoms: _57  and  _60
REMARK   24  A    between atoms: _60  and  _61
REMARK   25  A    between atoms: _65  and  _66
REMARK   26  A    between atoms: _71  and  _73
REMARK   27  A    between atoms: _73  and  _74
REMARK   28  A    between atoms: _73  and  _76
REMARK   29  A    between atoms: _76  and  _77
REMARK   30  A    between atoms: _80  and  _82
REMARK   31  A    between atoms: _82  and  _83
REMARK   32  A    between atoms: _82  and  _85
REMARK   33  A    between atoms: _85  and  _86
REMARK   34  A    between atoms: _91  and  _93
REMARK   35  A    between atoms: _93  and  _94
REMARK   36  A    between atoms: _93  and  _96
REMARK   37  A    between atoms: _96  and  _97
REMARK   38  A    between atoms: _97  and  _98
REMARK   39  A    between atoms: _103  and  _105
REMARK   40  A    between atoms: _105  and  _106
REMARK   41  A    between atoms: _105  and  _108
REMARK   42  A    between atoms: _108  and  _109
REMARK   43  A    between atoms: _114  and  _116
REMARK   44  A    between atoms: _116  and  _117
REMARK   45  A    between atoms: _116  and  _119
REMARK   46  A    between atoms: _119  and  _120
REMARK   47  A    between atoms: _122  and  _124
REMARK   48  A    between atoms: _124  and  _125
REMARK   49  A    between atoms: _124  and  _127
REMARK   50  A    between atoms: _127  and  _128
REMARK   51  A    between atoms: _134  and  _136
REMARK   52  A    between atoms: _136  and  _137
REMARK   53  A    between atoms: _136  and  _139
REMARK   54  A    between atoms: _139  and  _140
REMARK   55  A    between atoms: _143  and  _145
REMARK   56  A    between atoms: _145  and  _146
REMARK   57  A    between atoms: _145  and  _148
REMARK   58  A    between atoms: _148  and  _149
REMARK   59  A    between atoms: _151  and  _153
REMARK   60  A    between atoms: _153  and  _154
REMARK   61  A    between atoms: _153  and  _156
REMARK   62  A    between atoms: _156  and  _157
REMARK   63  A    between atoms: _160  and  _162
REMARK   64  A    between atoms: _162  and  _163
REMARK   65  A    between atoms: _165  and  _167
REMARK   66  A    between atoms: _167  and  _168
REMARK   67  A    between atoms: _170  and  _172
REMARK   68  A    between atoms: _172  and  _173
REMARK   69  A    between atoms: _172  and  _175
REMARK   70  A    between atoms: _175  and  _176
REMARK   71  A    between atoms: _186  and  _188
REMARK   72  A    between atoms: _188  and  _189
REMARK   73  A    between atoms: _188  and  _191
REMARK   74  A    between atoms: _191  and  _192
REMARK   75  A    between atoms: _197  and  _198
REMARK   76  A    between atoms: _200  and  _202
REMARK   77  A    between atoms: _202  and  _203
REMARK   78  A    between atoms: _202  and  _205
REMARK   79  A    between atoms: _205  and  _206
REMARK   80  A    between atoms: _211  and  _212
REMARK   81  A    between atoms: _214  and  _216
REMARK   82  A    between atoms: _216  and  _217
REMARK   83  A    between atoms: _216  and  _219
REMARK   84  A    between atoms: _219  and  _220
REMARK   85  A    between atoms: _222  and  _224
REMARK   86  A    between atoms: _224  and  _225
REMARK   87  A    between atoms: _224  and  _227
REMARK   88  A    between atoms: _227  and  _228
REMARK   89  A    between atoms: _233  and  _235
REMARK   90  A    between atoms: _235  and  _236
REMARK   91  A    between atoms: _235  and  _238
REMARK   92  A    between atoms: _241  and  _243
REMARK   93  A    between atoms: _243  and  _244
REMARK   94  A    between atoms: _243  and  _246
REMARK   95  A    between atoms: _246  and  _247
REMARK   96  A    between atoms: _250  and  _252
REMARK   97  A    between atoms: _252  and  _253
REMARK   98  A    between atoms: _252  and  _255
REMARK   99  A    between atoms: _255  and  _256
REMARK  100  A    between atoms: _259  and  _261
REMARK  101  A    between atoms: _261  and  _262
REMARK  102  A    between atoms: _261  and  _264
REMARK  103  A    between atoms: _264  and  _265
REMARK  104  A    between atoms: _270  and  _272
REMARK  105  A    between atoms: _272  and  _273
REMARK  106  A    between atoms: _272  and  _275
REMARK  107  A    between atoms: _275  and  _276
REMARK  108  A    between atoms: _286  and  _288
REMARK  109  A    between atoms: _288  and  _289
REMARK  110  A    between atoms: _288  and  _291
REMARK  111  A    between atoms: _291  and  _292
REMARK  112  A    between atoms: _292  and  _293
REMARK  113  A    between atoms: _296  and  _298
REMARK  114  A    between atoms: _298  and  _299
REMARK  115  A    between atoms: _298  and  _301
REMARK  116  A    between atoms: _301  and  _302
REMARK  117  A    between atoms: _307  and  _308
REMARK  118  A    between atoms: _310  and  _312
REMARK  119  A    between atoms: _312  and  _313
REMARK  120  A    between atoms: _312  and  _315
REMARK  121  A    between atoms: _315  and  _316
REMARK  122  A    between atoms: _319  and  _321
REMARK  123  A    between atoms: _321  and  _322
REMARK  124  A    between atoms: _325  and  _327
REMARK  125  A    between atoms: _327  and  _328
REMARK  126  A    between atoms: _330  and  _332
REMARK  127  A    between atoms: _332  and  _333
REMARK  128  A    between atoms: _332  and  _335
REMARK  129  A    between atoms: _335  and  _336
REMARK  130  A    between atoms: _341  and  _343
REMARK  131  A    between atoms: _343  and  _344
REMARK  132  A    between atoms: _343  and  _346
REMARK  133  A    between atoms: _346  and  _347
REMARK  134  A    between atoms: _350  and  _352
REMARK  135  A    between atoms: _352  and  _353
REMARK  136  A    between atoms: _352  and  _355
REMARK  137  A    between atoms: _355  and  _356
REMARK  138  A    between atoms: _356  and  _357
REMARK  139  A    between atoms: _359  and  _361
REMARK  140  A    between atoms: _361  and  _362
REMARK  141  A    between atoms: _361  and  _364
REMARK  142  A    between atoms: _364  and  _365
REMARK  143  A    between atoms: _368  and  _370
REMARK  144  A    between atoms: _370  and  _371
REMARK  145  A    between atoms: _370  and  _373
REMARK  146  A    between atoms: _373  and  _374
REMARK  147  A    between atoms: _379  and  _380
REMARK  148  A    between atoms: _382  and  _384
REMARK  149  A    between atoms: _384  and  _385
REMARK  150  A    between atoms: _384  and  _387
REMARK  151  A    between atoms: _387  and  _388
REMARK  152  A    between atoms: _391  and  _393
REMARK  153  A    between atoms: _393  and  _394
REMARK  154  A    between atoms: _393  and  _396
REMARK  155  A    between atoms: _396  and  _397
REMARK  156  A    between atoms: _407  and  _409
REMARK  157  A    between atoms: _409  and  _410
REMARK  158  A    between atoms: _409  and  _412
REMARK  159  A    between atoms: _412  and  _413
REMARK  160  A    between atoms: _413  and  _414
REMARK  161  A    between atoms: _419  and  _421
REMARK  162  A    between atoms: _421  and  _422
REMARK  163  A    between atoms: _424  and  _426
REMARK  164  A    between atoms: _426  and  _427
REMARK  165  A    between atoms: _426  and  _429
REMARK  166  A    between atoms: _433  and  _434
REMARK  167  A    between atoms: _439  and  _441
REMARK  168  A    between atoms: _441  and  _442
REMARK  169  A    between atoms: _441  and  _444
REMARK  170  A    between atoms: _444  and  _445
REMARK  171  A    between atoms: _451  and  _453
REMARK  172  A    between atoms: _453  and  _454
REMARK  173  A    between atoms: _453  and  _456
REMARK  174  A    between atoms: _456  and  _457
REMARK  175  A    between atoms: _462  and  _463
REMARK  176  A    between atoms: _465  and  _467
REMARK  177  A    between atoms: _467  and  _468
REMARK  178  A    between atoms: _470  and  _472
REMARK  179  A    between atoms: _472  and  _473
REMARK  180  A    between atoms: _472  and  _475
REMARK  181  A    between atoms: _475  and  _476
REMARK  182  A    between atoms: _476  and  _477
REMARK  183  A    between atoms: _477  and  _478
REMARK  184  A    between atoms: _487  and  _489
REMARK  185  A    between atoms: _489  and  _490
REMARK  186  A    between atoms: _489  and  _492
REMARK  187  A    between atoms: _492  and  _493
REMARK  188  A    between atoms: _496  and  _498
REMARK  189  A    between atoms: _498  and  _499
REMARK  190  A    between atoms: _498  and  _501
REMARK  191  A    between atoms: _501  and  _502
REMARK  192  A    between atoms: _502  and  _503
REMARK  193  A    between atoms: _506  and  _508
REMARK  194  A    between atoms: _508  and  _509
REMARK  195  A    between atoms: _508  and  _511
REMARK  196  A    between atoms: _511  and  _512
REMARK  197  A    between atoms: _512  and  _513
REMARK  198  A    between atoms: _513  and  _514
REMARK  199  A    between atoms: _523  and  _525
REMARK  200  A    between atoms: _525  and  _526
REMARK  201  A    between atoms: _525  and  _528
REMARK  202  A    between atoms: _528  and  _529
REMARK  203  A    between atoms: _532  and  _534
REMARK  204  A    between atoms: _534  and  _535
REMARK  205  A    between atoms: _534  and  _537
REMARK  206  A    between atoms: _537  and  _538
REMARK  207  A    between atoms: _538  and  _539
REMARK  208  A    between atoms: _539  and  _540
REMARK  209  A    between atoms: _540  and  _541
REMARK  210  A    between atoms: _545  and  _547
REMARK  211  A    between atoms: _547  and  _548
REMARK  212  A    between atoms: _547  and  _550
REMARK  213  A    between atoms: _550  and  _551
REMARK  214  A    between atoms: _554  and  _556
REMARK  215  A    between atoms: _556  and  _557
REMARK  216  A    between atoms: _556  and  _559
REMARK  217  A    between atoms: _559  and  _560
REMARK  218  A    between atoms: _560  and  _561
REMARK  219  A    between atoms: _561  and  _562
REMARK  220  A    between atoms: _571  and  _573
REMARK  221  A    between atoms: _573  and  _574
REMARK  222  A    between atoms: _573  and  _576
REMARK  223  A    between atoms: _576  and  _577
REMARK  224  A    between atoms: _580  and  _582
REMARK  225  A    between atoms: _582  and  _583
REMARK  226  A    between atoms: _586  and  _588
REMARK  227  A    between atoms: _588  and  _589
REMARK  228  A    between atoms: _588  and  _591
REMARK  229  A    between atoms: _591  and  _592
REMARK  230  A    between atoms: _594  and  _596
REMARK  231  A    between atoms: _596  and  _597
REMARK  232  A    between atoms: _596  and  _599
REMARK  233  A    between atoms: _599  and  _600
REMARK  234  A    between atoms: _600  and  _601
REMARK  235  A    between atoms: _603  and  _605
REMARK  236  A    between atoms: _605  and  _606
REMARK  237  A    between atoms: _605  and  _608
REMARK  238  A    between atoms: _608  and  _609
REMARK  239  A    between atoms: _615  and  _617
REMARK  240  A    between atoms: _617  and  _618
REMARK  241  A    between atoms: _617  and  _620
REMARK  242  A    between atoms: _620  and  _621
REMARK  243  A    between atoms: _631  and  _633
REMARK  244  A    between atoms: _633  and  _634
REMARK  245  A    between atoms: _633  and  _636
REMARK  246  A    between atoms: _636  and  _637
REMARK  247  A    between atoms: _642  and  _644
REMARK  248  A    between atoms: _644  and  _645
REMARK  249  A    between atoms: _644  and  _647
REMARK  250  A    between atoms: _647  and  _648
REMARK  251  A    between atoms: _648  and  _649
REMARK                            x       y       z     vdW  Elec       q    Type
REMARK                         _______ _______ _______ _____ _____    ______ ____
ROOT
ATOM      1  O   HOH     1      20.063  33.026 100.560  0.00  0.00    +0.000 OA
ENDROOT
TORSDOF 0
REMARK  Name = ../refined-set-2016/1ogg/1ogg_pocket.pdb
REMARK  251 active torsions:
REMARK  status: ('A' for Active; 'I' for Inactive)
REMARK    1  A    between atoms: _1  and  _3
REMARK    2  A    between atoms: _3  and  _4
REMARK    3  A    between atoms: _3  and  _6
REMARK    4  A    between atoms: _6  and  _7
REMARK    5  A    between atoms: _10  and  _12
REMARK    6  A    between atoms: _12  and  _13
REMARK    7  A    between atoms: _15  and  _17
REMARK    8  A    between atoms: _17  and  _18
REMARK    9  A    between atoms: _17  and  _20
REMARK   10  A    between atoms: _20  and  _21
REMARK   11  A    between atoms: _26  and  _27
REMARK   12  A    between atoms: _29  and  _31
REMARK   13  A    between atoms: _31  and  _32
REMARK   14  A    between atoms: _31  and  _34
REMARK   15  A    between atoms: _34  and  _35
REMARK   16  A    between atoms: _40  and  _41
REMARK   17  A    between atoms: _43  and  _45
REMARK   18  A    between atoms: _45  and  _46
REMARK   19  A    between atoms: _45  and  _48
REMARK   20  A    between atoms: _48  and  _49
REMARK   21  A    between atoms: _55  and  _57
REMARK   22  A    between atoms: _57  and  _58
REMARK   23  A    between atoms: _57  and  _60
REMARK   24  A    between atoms: _60  and  _61
REMARK   25  A    between atoms: _65  and  _66
REMARK   26  A    between atoms: _71  and  _73
REMARK   27  A    between atoms: _73  and  _74
REMARK   28  A    between atoms: _73  and  _76
REMARK   29  A    between atoms: _76  and  _77
REMARK   30  A    between atoms: _80  and  _82
REMARK   31  A    between atoms: _82  and  _83
REMARK   32  A    between atoms: _82  and  _85
REMARK   33  A    between atoms: _85  and  _86
REMARK   34  A    between atoms: _91  and  _93
REMARK   35  A    between atoms: _93  and  _94
REMARK   36  A    between atoms: _93  and  _96
REMARK   37  A    between atoms: _96  and  _97
REMARK   38  A    between atoms: _97  and  _98
REMARK   39  A    between atoms: _103  and  _105
REMARK   40  A    between atoms: _105  and  _106
REMARK   41  A    between atoms: _105  and  _108
REMARK   42  A    between atoms: _108  and  _109
REMARK   43  A    between atoms: _114  and  _116
REMARK   44  A    between atoms: _116  and  _117
REMARK   45  A    between atoms: _116  and  _119
REMARK   46  A    between atoms: _119  and  _120
REMARK   47  A    between atoms: _122  and  _124
REMARK   48  A    between atoms: _124  and  _125
REMARK   49  A    between atoms: _124  and  _127
REMARK   50  A    between atoms: _127  and  _128
REMARK   51  A    between atoms: _134  and  _136
REMARK   52  A    between atoms: _136  and  _137
REMARK   53  A    between atoms: _136  and  _139
REMARK   54  A    between atoms: _139  and  _140
REMARK   55  A    between atoms: _143  and  _145
REMARK   56  A    between atoms: _145  and  _146
REMARK   57  A    between atoms: _145  and  _148
REMARK   58  A    between atoms: _148  and  _149
REMARK   59  A    between atoms: _151  and  _153
REMARK   60  A    between atoms: _153  and  _154
REMARK   61  A    between atoms: _153  and  _156
REMARK   62  A    between atoms: _156  and  _157
REMARK   63  A    between atoms: _160  and  _162
REMARK   64  A    between atoms: _162  and  _163
REMARK   65  A    between atoms: _165  and  _167
REMARK   66  A    between atoms: _167  and  _168
REMARK   67  A    between atoms: _170  and  _172
REMARK   68  A    between atoms: _172  and  _173
REMARK   69  A    between atoms: _172  and  _175
REMARK   70  A    between atoms: _175  and  _176
REMARK   71  A    between atoms: _186  and  _188
REMARK   72  A    between atoms: _188  and  _189
REMARK   73  A    between atoms: _188  and  _191
REMARK   74  A    between atoms: _191  and  _192
REMARK   75  A    between atoms: _197  and  _198
REMARK   76  A    between atoms: _200  and  _202
REMARK   77  A    between atoms: _202  and  _203
REMARK   78  A    between atoms: _202  and  _205
REMARK   79  A    between atoms: _205  and  _206
REMARK   80  A    between atoms: _211  and  _212
REMARK   81  A    between atoms: _214  and  _216
REMARK   82  A    between atoms: _216  and  _217
REMARK   83  A    between atoms: _216  and  _219
REMARK   84  A    between atoms: _219  and  _220
REMARK   85  A    between atoms: _222  and  _224
REMARK   86  A    between atoms: _224  and  _225
REMARK   87  A    between atoms: _224  and  _227
REMARK   88  A    between atoms: _227  and  _228
REMARK   89  A    between atoms: _233  and  _235
REMARK   90  A    between atoms: _235  and  _236
REMARK   91  A    between atoms: _235  and  _238
REMARK   92  A    between atoms: _241  and  _243
REMARK   93  A    between atoms: _243  and  _244
REMARK   94  A    between atoms: _243  and  _246
REMARK   95  A    between atoms: _246  and  _247
REMARK   96  A    between atoms: _250  and  _252
REMARK   97  A    between atoms: _252  and  _253
REMARK   98  A    between atoms: _252  and  _255
REMARK   99  A    between atoms: _255  and  _256
REMARK  100  A    between atoms: _259  and  _261
REMARK  101  A    between atoms: _261  and  _262
REMARK  102  A    between atoms: _261  and  _264
REMARK  103  A    between atoms: _264  and  _265
REMARK  104  A    between atoms: _270  and  _272
REMARK  105  A    between atoms: _272  and  _273
REMARK  106  A    between atoms: _272  and  _275
REMARK  107  A    between atoms: _275  and  _276
REMARK  108  A    between atoms: _286  and  _288
REMARK  109  A    between atoms: _288  and  _289
REMARK  110  A    between atoms: _288  and  _291
REMARK  111  A    between atoms: _291  and  _292
REMARK  112  A    between atoms: _292  and  _293
REMARK  113  A    between atoms: _296  and  _298
REMARK  114  A    between atoms: _298  and  _299
REMARK  115  A    between atoms: _298  and  _301
REMARK  116  A    between atoms: _301  and  _302
REMARK  117  A    between atoms: _307  and  _308
REMARK  118  A    between atoms: _310  and  _312
REMARK  119  A    between atoms: _312  and  _313
REMARK  120  A    between atoms: _312  and  _315
REMARK  121  A    between atoms: _315  and  _316
REMARK  122  A    between atoms: _319  and  _321
REMARK  123  A    between atoms: _321  and  _322
REMARK  124  A    between atoms: _325  and  _327
REMARK  125  A    between atoms: _327  and  _328
REMARK  126  A    between atoms: _330  and  _332
REMARK  127  A    between atoms: _332  and  _333
REMARK  128  A    between atoms: _332  and  _335
REMARK  129  A    between atoms: _335  and  _336
REMARK  130  A    between atoms: _341  and  _343
REMARK  131  A    between atoms: _343  and  _344
REMARK  132  A    between atoms: _343  and  _346
REMARK  133  A    between atoms: _346  and  _347
REMARK  134  A    between atoms: _350  and  _352
REMARK  135  A    between atoms: _352  and  _353
REMARK  136  A    between atoms: _352  and  _355
REMARK  137  A    between atoms: _355  and  _356
REMARK  138  A    between atoms: _356  and  _357
REMARK  139  A    between atoms: _359  and  _361
REMARK  140  A    between atoms: _361  and  _362
REMARK  141  A    between atoms: _361  and  _364
REMARK  142  A    between atoms: _364  and  _365
REMARK  143  A    between atoms: _368  and  _370
REMARK  144  A    between atoms: _370  and  _371
REMARK  145  A    between atoms: _370  and  _373
REMARK  146  A    between atoms: _373  and  _374
REMARK  147  A    between atoms: _379  and  _380
REMARK  148  A    between atoms: _382  and  _384
REMARK  149  A    between atoms: _384  and  _385
REMARK  150  A    between atoms: _384  and  _387
REMARK  151  A    between atoms: _387  and  _388
REMARK  152  A    between atoms: _391  and  _393
REMARK  153  A    between atoms: _393  and  _394
REMARK  154  A    between atoms: _393  and  _396
REMARK  155  A    between atoms: _396  and  _397
REMARK  156  A    between atoms: _407  and  _409
REMARK  157  A    between atoms: _409  and  _410
REMARK  158  A    between atoms: _409  and  _412
REMARK  159  A    between atoms: _412  and  _413
REMARK  160  A    between atoms: _413  and  _414
REMARK  161  A    between atoms: _419  and  _421
REMARK  162  A    between atoms: _421  and  _422
REMARK  163  A    between atoms: _424  and  _426
REMARK  164  A    between atoms: _426  and  _427
REMARK  165  A    between atoms: _426  and  _429
REMARK  166  A    between atoms: _433  and  _434
REMARK  167  A    between atoms: _439  and  _441
REMARK  168  A    between atoms: _441  and  _442
REMARK  169  A    between atoms: _441  and  _444
REMARK  170  A    between atoms: _444  and  _445
REMARK  171  A    between atoms: _451  and  _453
REMARK  172  A    between atoms: _453  and  _454
REMARK  173  A    between atoms: _453  and  _456
REMARK  174  A    between atoms: _456  and  _457
REMARK  175  A    between atoms: _462  and  _463
REMARK  176  A    between atoms: _465  and  _467
REMARK  177  A    between atoms: _467  and  _468
REMARK  178  A    between atoms: _470  and  _472
REMARK  179  A    between atoms: _472  and  _473
REMARK  180  A    between atoms: _472  and  _475
REMARK  181  A    between atoms: _475  and  _476
REMARK  182  A    between atoms: _476  and  _477
REMARK  183  A    between atoms: _477  and  _478
REMARK  184  A    between atoms: _487  and  _489
REMARK  185  A    between atoms: _489  and  _490
REMARK  186  A    between atoms: _489  and  _492
REMARK  187  A    between atoms: _492  and  _493
REMARK  188  A    between atoms: _496  and  _498
REMARK  189  A    between atoms: _498  and  _499
REMARK  190  A    between atoms: _498  and  _501
REMARK  191  A    between atoms: _501  and  _502
REMARK  192  A    between atoms: _502  and  _503
REMARK  193  A    between atoms: _506  and  _508
REMARK  194  A    between atoms: _508  and  _509
REMARK  195  A    between atoms: _508  and  _511
REMARK  196  A    between atoms: _511  and  _512
REMARK  197  A    between atoms: _512  and  _513
REMARK  198  A    between atoms: _513  and  _514
REMARK  199  A    between atoms: _523  and  _525
REMARK  200  A    between atoms: _525  and  _526
REMARK  201  A    between atoms: _525  and  _528
REMARK  202  A    between atoms: _528  and  _529
REMARK  203  A    between atoms: _532  and  _534
REMARK  204  A    between atoms: _534  and  _535
REMARK  205  A    between atoms: _534  and  _537
REMARK  206  A    between atoms: _537  and  _538
REMARK  207  A    between atoms: _538  and  _539
REMARK  208  A    between atoms: _539  and  _540
REMARK  209  A    between atoms: _540  and  _541
REMARK  210  A    between atoms: _545  and  _547
REMARK  211  A    between atoms: _547  and  _548
REMARK  212  A    between atoms: _547  and  _550
REMARK  213  A    between atoms: _550  and  _551
REMARK  214  A    between atoms: _554  and  _556
REMARK  215  A    between atoms: _556  and  _557
REMARK  216  A    between atoms: _556  and  _559
REMARK  217  A    between atoms: _559  and  _560
REMARK  218  A    between atoms: _560  and  _561
REMARK  219  A    between atoms: _561  and  _562
REMARK  220  A    between atoms: _571  and  _573
REMARK  221  A    between atoms: _573  and  _574
REMARK  222  A    between atoms: _573  and  _576
REMARK  223  A    between atoms: _576  and  _577
REMARK  224  A    between atoms: _580  and  _582
REMARK  225  A    between atoms: _582  and  _583
REMARK  226  A    between atoms: _586  and  _588
REMARK  227  A    between atoms: _588  and  _589
REMARK  228  A    between atoms: _588  and  _591
REMARK  229  A    between atoms: _591  and  _592
REMARK  230  A    between atoms: _594  and  _596
REMARK  231  A    between atoms: _596  and  _597
REMARK  232  A    between atoms: _596  and  _599
REMARK  233  A    between atoms: _599  and  _600
REMARK  234  A    between atoms: _600  and  _601
REMARK  235  A    between atoms: _603  and  _605
REMARK  236  A    between atoms: _605  and  _606
REMARK  237  A    between atoms: _605  and  _608
REMARK  238  A    between atoms: _608  and  _609
REMARK  239  A    between atoms: _615  and  _617
REMARK  240  A    between atoms: _617  and  _618
REMARK  241  A    between atoms: _617  and  _620
REMARK  242  A    between atoms: _620  and  _621
REMARK  243  A    between atoms: _631  and  _633
REMARK  244  A    between atoms: _633  and  _634
REMARK  245  A    between atoms: _633  and  _636
REMARK  246  A    between atoms: _636  and  _637
REMARK  247  A    between atoms: _642  and  _644
REMARK  248  A    between atoms: _644  and  _645
REMARK  249  A    between atoms: _644  and  _647
REMARK  250  A    between atoms: _647  and  _648
REMARK  251  A    between atoms: _648  and  _649
REMARK                            x       y       z     vdW  Elec       q    Type
REMARK                         _______ _______ _______ _____ _____    ______ ____
ROOT
ATOM      1  O   HOH     1      22.051  33.192  98.615  0.00  0.00    +0.000 OA
ENDROOT
TORSDOF 0
REMARK  Name = ../refined-set-2016/1ogg/1ogg_pocket.pdb
REMARK  251 active torsions:
REMARK  status: ('A' for Active; 'I' for Inactive)
REMARK    1  A    between atoms: _1  and  _3
REMARK    2  A    between atoms: _3  and  _4
REMARK    3  A    between atoms: _3  and  _6
REMARK    4  A    between atoms: _6  and  _7
REMARK    5  A    between atoms: _10  and  _12
REMARK    6  A    between atoms: _12  and  _13
REMARK    7  A    between atoms: _15  and  _17
REMARK    8  A    between atoms: _17  and  _18
REMARK    9  A    between atoms: _17  and  _20
REMARK   10  A    between atoms: _20  and  _21
REMARK   11  A    between atoms: _26  and  _27
REMARK   12  A    between atoms: _29  and  _31
REMARK   13  A    between atoms: _31  and  _32
REMARK   14  A    between atoms: _31  and  _34
REMARK   15  A    between atoms: _34  and  _35
REMARK   16  A    between atoms: _40  and  _41
REMARK   17  A    between atoms: _43  and  _45
REMARK   18  A    between atoms: _45  and  _46
REMARK   19  A    between atoms: _45  and  _48
REMARK   20  A    between atoms: _48  and  _49
REMARK   21  A    between atoms: _55  and  _57
REMARK   22  A    between atoms: _57  and  _58
REMARK   23  A    between atoms: _57  and  _60
REMARK   24  A    between atoms: _60  and  _61
REMARK   25  A    between atoms: _65  and  _66
REMARK   26  A    between atoms: _71  and  _73
REMARK   27  A    between atoms: _73  and  _74
REMARK   28  A    between atoms: _73  and  _76
REMARK   29  A    between atoms: _76  and  _77
REMARK   30  A    between atoms: _80  and  _82
REMARK   31  A    between atoms: _82  and  _83
REMARK   32  A    between atoms: _82  and  _85
REMARK   33  A    between atoms: _85  and  _86
REMARK   34  A    between atoms: _91  and  _93
REMARK   35  A    between atoms: _93  and  _94
REMARK   36  A    between atoms: _93  and  _96
REMARK   37  A    between atoms: _96  and  _97
REMARK   38  A    between atoms: _97  and  _98
REMARK   39  A    between atoms: _103  and  _105
REMARK   40  A    between atoms: _105  and  _106
REMARK   41  A    between atoms: _105  and  _108
REMARK   42  A    between atoms: _108  and  _109
REMARK   43  A    between atoms: _114  and  _116
REMARK   44  A    between atoms: _116  and  _117
REMARK   45  A    between atoms: _116  and  _119
REMARK   46  A    between atoms: _119  and  _120
REMARK   47  A    between atoms: _122  and  _124
REMARK   48  A    between atoms: _124  and  _125
REMARK   49  A    between atoms: _124  and  _127
REMARK   50  A    between atoms: _127  and  _128
REMARK   51  A    between atoms: _134  and  _136
REMARK   52  A    between atoms: _136  and  _137
REMARK   53  A    between atoms: _136  and  _139
REMARK   54  A    between atoms: _139  and  _140
REMARK   55  A    between atoms: _143  and  _145
REMARK   56  A    between atoms: _145  and  _146
REMARK   57  A    between atoms: _145  and  _148
REMARK   58  A    between atoms: _148  and  _149
REMARK   59  A    between atoms: _151  and  _153
REMARK   60  A    between atoms: _153  and  _154
REMARK   61  A    between atoms: _153  and  _156
REMARK   62  A    between atoms: _156  and  _157
REMARK   63  A    between atoms: _160  and  _162
REMARK   64  A    between atoms: _162  and  _163
REMARK   65  A    between atoms: _165  and  _167
REMARK   66  A    between atoms: _167  and  _168
REMARK   67  A    between atoms: _170  and  _172
REMARK   68  A    between atoms: _172  and  _173
REMARK   69  A    between atoms: _172  and  _175
REMARK   70  A    between atoms: _175  and  _176
REMARK   71  A    between atoms: _186  and  _188
REMARK   72  A    between atoms: _188  and  _189
REMARK   73  A    between atoms: _188  and  _191
REMARK   74  A    between atoms: _191  and  _192
REMARK   75  A    between atoms: _197  and  _198
REMARK   76  A    between atoms: _200  and  _202
REMARK   77  A    between atoms: _202  and  _203
REMARK   78  A    between atoms: _202  and  _205
REMARK   79  A    between atoms: _205  and  _206
REMARK   80  A    between atoms: _211  and  _212
REMARK   81  A    between atoms: _214  and  _216
REMARK   82  A    between atoms: _216  and  _217
REMARK   83  A    between atoms: _216  and  _219
REMARK   84  A    between atoms: _219  and  _220
REMARK   85  A    between atoms: _222  and  _224
REMARK   86  A    between atoms: _224  and  _225
REMARK   87  A    between atoms: _224  and  _227
REMARK   88  A    between atoms: _227  and  _228
REMARK   89  A    between atoms: _233  and  _235
REMARK   90  A    between atoms: _235  and  _236
REMARK   91  A    between atoms: _235  and  _238
REMARK   92  A    between atoms: _241  and  _243
REMARK   93  A    between atoms: _243  and  _244
REMARK   94  A    between atoms: _243  and  _246
REMARK   95  A    between atoms: _246  and  _247
REMARK   96  A    between atoms: _250  and  _252
REMARK   97  A    between atoms: _252  and  _253
REMARK   98  A    between atoms: _252  and  _255
REMARK   99  A    between atoms: _255  and  _256
REMARK  100  A    between atoms: _259  and  _261
REMARK  101  A    between atoms: _261  and  _262
REMARK  102  A    between atoms: _261  and  _264
REMARK  103  A    between atoms: _264  and  _265
REMARK  104  A    between atoms: _270  and  _272
REMARK  105  A    between atoms: _272  and  _273
REMARK  106  A    between atoms: _272  and  _275
REMARK  107  A    between atoms: _275  and  _276
REMARK  108  A    between atoms: _286  and  _288
REMARK  109  A    between atoms: _288  and  _289
REMARK  110  A    between atoms: _288  and  _291
REMARK  111  A    between atoms: _291  and  _292
REMARK  112  A    between atoms: _292  and  _293
REMARK  113  A    between atoms: _296  and  _298
REMARK  114  A    between atoms: _298  and  _299
REMARK  115  A    between atoms: _298  and  _301
REMARK  116  A    between atoms: _301  and  _302
REMARK  117  A    between atoms: _307  and  _308
REMARK  118  A    between atoms: _310  and  _312
REMARK  119  A    between atoms: _312  and  _313
REMARK  120  A    between atoms: _312  and  _315
REMARK  121  A    between atoms: _315  and  _316
REMARK  122  A    between atoms: _319  and  _321
REMARK  123  A    between atoms: _321  and  _322
REMARK  124  A    between atoms: _325  and  _327
REMARK  125  A    between atoms: _327  and  _328
REMARK  126  A    between atoms: _330  and  _332
REMARK  127  A    between atoms: _332  and  _333
REMARK  128  A    between atoms: _332  and  _335
REMARK  129  A    between atoms: _335  and  _336
REMARK  130  A    between atoms: _341  and  _343
REMARK  131  A    between atoms: _343  and  _344
REMARK  132  A    between atoms: _343  and  _346
REMARK  133  A    between atoms: _346  and  _347
REMARK  134  A    between atoms: _350  and  _352
REMARK  135  A    between atoms: _352  and  _353
REMARK  136  A    between atoms: _352  and  _355
REMARK  137  A    between atoms: _355  and  _356
REMARK  138  A    between atoms: _356  and  _357
REMARK  139  A    between atoms: _359  and  _361
REMARK  140  A    between atoms: _361  and  _362
REMARK  141  A    between atoms: _361  and  _364
REMARK  142  A    between atoms: _364  and  _365
REMARK  143  A    between atoms: _368  and  _370
REMARK  144  A    between atoms: _370  and  _371
REMARK  145  A    between atoms: _370  and  _373
REMARK  146  A    between atoms: _373  and  _374
REMARK  147  A    between atoms: _379  and  _380
REMARK  148  A    between atoms: _382  and  _384
REMARK  149  A    between atoms: _384  and  _385
REMARK  150  A    between atoms: _384  and  _387
REMARK  151  A    between atoms: _387  and  _388
REMARK  152  A    between atoms: _391  and  _393
REMARK  153  A    between atoms: _393  and  _394
REMARK  154  A    between atoms: _393  and  _396
REMARK  155  A    between atoms: _396  and  _397
REMARK  156  A    between atoms: _407  and  _409
REMARK  157  A    between atoms: _409  and  _410
REMARK  158  A    between atoms: _409  and  _412
REMARK  159  A    between atoms: _412  and  _413
REMARK  160  A    between atoms: _413  and  _414
REMARK  161  A    between atoms: _419  and  _421
REMARK  162  A    between atoms: _421  and  _422
REMARK  163  A    between atoms: _424  and  _426
REMARK  164  A    between atoms: _426  and  _427
REMARK  165  A    between atoms: _426  and  _429
REMARK  166  A    between atoms: _433  and  _434
REMARK  167  A    between atoms: _439  and  _441
REMARK  168  A    between atoms: _441  and  _442
REMARK  169  A    between atoms: _441  and  _444
REMARK  170  A    between atoms: _444  and  _445
REMARK  171  A    between atoms: _451  and  _453
REMARK  172  A    between atoms: _453  and  _454
REMARK  173  A    between atoms: _453  and  _456
REMARK  174  A    between atoms: _456  and  _457
REMARK  175  A    between atoms: _462  and  _463
REMARK  176  A    between atoms: _465  and  _467
REMARK  177  A    between atoms: _467  and  _468
REMARK  178  A    between atoms: _470  and  _472
REMARK  179  A    between atoms: _472  and  _473
REMARK  180  A    between atoms: _472  and  _475
REMARK  181  A    between atoms: _475  and  _476
REMARK  182  A    between atoms: _476  and  _477
REMARK  183  A    between atoms: _477  and  _478
REMARK  184  A    between atoms: _487  and  _489
REMARK  185  A    between atoms: _489  and  _490
REMARK  186  A    between atoms: _489  and  _492
REMARK  187  A    between atoms: _492  and  _493
REMARK  188  A    between atoms: _496  and  _498
REMARK  189  A    between atoms: _498  and  _499
REMARK  190  A    between atoms: _498  and  _501
REMARK  191  A    between atoms: _501  and  _502
REMARK  192  A    between atoms: _502  and  _503
REMARK  193  A    between atoms: _506  and  _508
REMARK  194  A    between atoms: _508  and  _509
REMARK  195  A    between atoms: _508  and  _511
REMARK  196  A    between atoms: _511  and  _512
REMARK  197  A    between atoms: _512  and  _513
REMARK  198  A    between atoms: _513  and  _514
REMARK  199  A    between atoms: _523  and  _525
REMARK  200  A    between atoms: _525  and  _526
REMARK  201  A    between atoms: _525  and  _528
REMARK  202  A    between atoms: _528  and  _529
REMARK  203  A    between atoms: _532  and  _534
REMARK  204  A    between atoms: _534  and  _535
REMARK  205  A    between atoms: _534  and  _537
REMARK  206  A    between atoms: _537  and  _538
REMARK  207  A    between atoms: _538  and  _539
REMARK  208  A    between atoms: _539  and  _540
REMARK  209  A    between atoms: _540  and  _541
REMARK  210  A    between atoms: _545  and  _547
REMARK  211  A    between atoms: _547  and  _548
REMARK  212  A    between atoms: _547  and  _550
REMARK  213  A    between atoms: _550  and  _551
REMARK  214  A    between atoms: _554  and  _556
REMARK  215  A    between atoms: _556  and  _557
REMARK  216  A    between atoms: _556  and  _559
REMARK  217  A    between atoms: _559  and  _560
REMARK  218  A    between atoms: _560  and  _561
REMARK  219  A    between atoms: _561  and  _562
REMARK  220  A    between atoms: _571  and  _573
REMARK  221  A    between atoms: _573  and  _574
REMARK  222  A    between atoms: _573  and  _576
REMARK  223  A    between atoms: _576  and  _577
REMARK  224  A    between atoms: _580  and  _582
REMARK  225  A    between atoms: _582  and  _583
REMARK  226  A    between atoms: _586  and  _588
REMARK  227  A    between atoms: _588  and  _589
REMARK  228  A    between atoms: _588  and  _591
REMARK  229  A    between atoms: _591  and  _592
REMARK  230  A    between atoms: _594  and  _596
REMARK  231  A    between atoms: _596  and  _597
REMARK  232  A    between atoms: _596  and  _599
REMARK  233  A    between atoms: _599  and  _600
REMARK  234  A    between atoms: _600  and  _601
REMARK  235  A    between atoms: _603  and  _605
REMARK  236  A    between atoms: _605  and  _606
REMARK  237  A    between atoms: _605  and  _608
REMARK  238  A    between atoms: _608  and  _609
REMARK  239  A    between atoms: _615  and  _617
REMARK  240  A    between atoms: _617  and  _618
REMARK  241  A    between atoms: _617  and  _620
REMARK  242  A    between atoms: _620  and  _621
REMARK  243  A    between atoms: _631  and  _633
REMARK  244  A    between atoms: _633  and  _634
REMARK  245  A    between atoms: _633  and  _636
REMARK  246  A    between atoms: _636  and  _637
REMARK  247  A    between atoms: _642  and  _644
REMARK  248  A    between atoms: _644  and  _645
REMARK  249  A    between atoms: _644  and  _647
REMARK  250  A    between atoms: _647  and  _648
REMARK  251  A    between atoms: _648  and  _649
REMARK                            x       y       z     vdW  Elec       q    Type
REMARK                         _______ _______ _______ _____ _____    ______ ____
ROOT
ATOM      1  O   HOH     1      19.174  36.090 110.138  0.00  0.00    +0.000 OA
ENDROOT
TORSDOF 0
